<routes>
    <route id="E17Bin_E23Bout3.qTruck.0" edges="E17Bin ELin1 E17Bin3 E17Bin2 E17Bin2.1 E17Bin1 E17B E18B E19B E20B E21B E22B E23B E23Bout1 E23Bout2 E23Bout3"/>
    <route id="E1B_E62B.qTruck.0" edges="E1B E2B E3B E4B E5B E6B E7B E8B E9B E10B E11B E12B E13B E14B E15B E16B E17B E18B E19B E20B E21B E22B E23B E24B E25B E26B E27B E28B E29B E30B E31B E32B E33B E34B E35B E36B E37B E38B E39B E40B E41B E42B E43B E44B E45B E46B E47B E48B E49B E50B E51B E52B E53B E54B E55B E56B E57B E58B E59B E60B E61B E62B"/>
    <route id="E1Z_E61Z.qTruck.0" edges="E1Z E2Z E3Z E4Z E5Z E6Z E7Z E8Z E9Z E10Z E11Z E12Z E13Z E14Z E15Z E16Z E17Z E18Z E19Z E20Z E21Z E22Z E23Z E24Z E25Z E26Z E27Z E28Z E29Z E30Z E31Z E32Z E33Z E34Z E35Z E36Z E37Z E38Z E39Z E40Z E41Z E42Z E43Z E44Z E45Z E46Z E47Z E48Z E49Z E50Z E51Z E52Z E53Z E54Z E55Z E56Z E57Z E58Z E59Z E60Z E61Z"/>
    <route id="E38Zin3_E45Zout.qTruck.0" edges="E38Zin3 E38Zin2 E38Zin1 E38Zin1.0 E38Z E39Z E40Z E41Z E42Z E43Z E44Z E45Z E45Zout1 E45Zout2 E45Zout3 E45Zout4 E45Zout5 ELout1 E45Zout"/>
    <route id="E44Bin3_E59Bout3.qTruck.0" edges="E44Bin3 E44Bin2 E44Bin2.1 E44Bin1 E44B E45B E46B E47B E48B E49B E50B E51B E52B E53B E54B E55B E56B E57B E58B E59B E59Bout1 E59Bout2 E59Bout3"/>
    <route id="E56Zin3_E61Z.qTruck.0" edges="E56Zin3 E56Zin2 E56Zin2.1 E56Zin1 E56Z E57Z E58Z E59Z E60Z E61Z"/>
    <route id="E5Zin2_E20Zout2.qTruck.0" edges="E5Zin2 E5Zin1 E5Zin1.0 E5Z E6Z E7Z E8Z E9Z E10Z E11Z E12Z E13Z E14Z E15Z E16Z E17Z E18Z E19Z E20Z E20Zout1 E20Zout2"/>
    <route id="E62Bin2_E62B.qTruck.0" edges="E62Bin2 E62Bin1 E62Bin1.0 E62B"/>
    <route id="E17Bin_E23Bout3.qTruck.5.0" edges="E17Bin ELin1 E17Bin3 E17Bin2 E17Bin2.1 E17Bin1 E17B E18B E19B E20B E21B E22B E23B E23Bout1 E23Bout2 E23Bout3"/>
    <route id="E1B_E62B.qTruck.5.0" edges="E1B E2B E3B E4B E5B E6B E7B E8B E9B E10B E11B E12B E13B E14B E15B E16B E17B E18B E19B E20B E21B E22B E23B E24B E25B E26B E27B E28B E29B E30B E31B E32B E33B E34B E35B E36B E37B E38B E39B E40B E41B E42B E43B E44B E45B E46B E47B E48B E49B E50B E51B E52B E53B E54B E55B E56B E57B E58B E59B E60B E61B E62B"/>
    <route id="E1Z_E61Z.qTruck.5.0" edges="E1Z E2Z E3Z E4Z E5Z E6Z E7Z E8Z E9Z E10Z E11Z E12Z E13Z E14Z E15Z E16Z E17Z E18Z E19Z E20Z E21Z E22Z E23Z E24Z E25Z E26Z E27Z E28Z E29Z E30Z E31Z E32Z E33Z E34Z E35Z E36Z E37Z E38Z E39Z E40Z E41Z E42Z E43Z E44Z E45Z E46Z E47Z E48Z E49Z E50Z E51Z E52Z E53Z E54Z E55Z E56Z E57Z E58Z E59Z E60Z E61Z"/>
    <route id="E38Zin3_E45Zout.qTruck.5.0" edges="E38Zin3 E38Zin2 E38Zin1 E38Zin1.0 E38Z E39Z E40Z E41Z E42Z E43Z E44Z E45Z E45Zout1 E45Zout2 E45Zout3 E45Zout4 E45Zout5 ELout1 E45Zout"/>
    <route id="E44Bin3_E59Bout3.qTruck.5.0" edges="E44Bin3 E44Bin2 E44Bin2.1 E44Bin1 E44B E45B E46B E47B E48B E49B E50B E51B E52B E53B E54B E55B E56B E57B E58B E59B E59Bout1 E59Bout2 E59Bout3"/>
    <route id="E56Zin3_E61Z.qTruck.5.0" edges="E56Zin3 E56Zin2 E56Zin2.1 E56Zin1 E56Z E57Z E58Z E59Z E60Z E61Z"/>
    <route id="E5Zin2_E20Zout2.qTruck.5.0" edges="E5Zin2 E5Zin1 E5Zin1.0 E5Z E6Z E7Z E8Z E9Z E10Z E11Z E12Z E13Z E14Z E15Z E16Z E17Z E18Z E19Z E20Z E20Zout1 E20Zout2"/>
    <route id="E62Bin2_E62B.qTruck.5.0" edges="E62Bin2 E62Bin1 E62Bin1.0 E62B"/>
    <route id="E1B_E62B.qTruck.10.0" edges="E1B E2B E3B E4B E5B E6B E7B E8B E9B E10B E11B E12B E13B E14B E15B E16B E17B E18B E19B E20B E21B E22B E23B E24B E25B E26B E27B E28B E29B E30B E31B E32B E33B E34B E35B E36B E37B E38B E39B E40B E41B E42B E43B E44B E45B E46B E47B E48B E49B E50B E51B E52B E53B E54B E55B E56B E57B E58B E59B E60B E61B E62B"/>
    <route id="E1Z_E61Z.qTruck.10.0" edges="E1Z E2Z E3Z E4Z E5Z E6Z E7Z E8Z E9Z E10Z E11Z E12Z E13Z E14Z E15Z E16Z E17Z E18Z E19Z E20Z E21Z E22Z E23Z E24Z E25Z E26Z E27Z E28Z E29Z E30Z E31Z E32Z E33Z E34Z E35Z E36Z E37Z E38Z E39Z E40Z E41Z E42Z E43Z E44Z E45Z E46Z E47Z E48Z E49Z E50Z E51Z E52Z E53Z E54Z E55Z E56Z E57Z E58Z E59Z E60Z E61Z"/>
    <route id="E38Zin3_E45Zout.qTruck.10.0" edges="E38Zin3 E38Zin2 E38Zin1 E38Zin1.0 E38Z E39Z E40Z E41Z E42Z E43Z E44Z E45Z E45Zout1 E45Zout2 E45Zout3 E45Zout4 E45Zout5 ELout1 E45Zout"/>
    <route id="E44Bin3_E59Bout3.qTruck.10.0" edges="E44Bin3 E44Bin2 E44Bin2.1 E44Bin1 E44B E45B E46B E47B E48B E49B E50B E51B E52B E53B E54B E55B E56B E57B E58B E59B E59Bout1 E59Bout2 E59Bout3"/>
    <route id="E56Zin3_E61Z.qTruck.10.0" edges="E56Zin3 E56Zin2 E56Zin2.1 E56Zin1 E56Z E57Z E58Z E59Z E60Z E61Z"/>
    <route id="E5Zin2_E20Zout2.qTruck.10.0" edges="E5Zin2 E5Zin1 E5Zin1.0 E5Z E6Z E7Z E8Z E9Z E10Z E11Z E12Z E13Z E14Z E15Z E16Z E17Z E18Z E19Z E20Z E20Zout1 E20Zout2"/>
    <route id="E62Bin2_E62B.qTruck.10.0" edges="E62Bin2 E62Bin1 E62Bin1.0 E62B"/>
    <route id="E17Bin_E23Bout3.qTruck.15.0" edges="E17Bin ELin1 E17Bin3 E17Bin2 E17Bin2.1 E17Bin1 E17B E18B E19B E20B E21B E22B E23B E23Bout1 E23Bout2 E23Bout3"/>
    <route id="E1B_E62B.qTruck.15.0" edges="E1B E2B E3B E4B E5B E6B E7B E8B E9B E10B E11B E12B E13B E14B E15B E16B E17B E18B E19B E20B E21B E22B E23B E24B E25B E26B E27B E28B E29B E30B E31B E32B E33B E34B E35B E36B E37B E38B E39B E40B E41B E42B E43B E44B E45B E46B E47B E48B E49B E50B E51B E52B E53B E54B E55B E56B E57B E58B E59B E60B E61B E62B"/>
    <route id="E1Z_E61Z.qTruck.15.0" edges="E1Z E2Z E3Z E4Z E5Z E6Z E7Z E8Z E9Z E10Z E11Z E12Z E13Z E14Z E15Z E16Z E17Z E18Z E19Z E20Z E21Z E22Z E23Z E24Z E25Z E26Z E27Z E28Z E29Z E30Z E31Z E32Z E33Z E34Z E35Z E36Z E37Z E38Z E39Z E40Z E41Z E42Z E43Z E44Z E45Z E46Z E47Z E48Z E49Z E50Z E51Z E52Z E53Z E54Z E55Z E56Z E57Z E58Z E59Z E60Z E61Z"/>
    <route id="E38Zin3_E45Zout.qTruck.15.0" edges="E38Zin3 E38Zin2 E38Zin1 E38Zin1.0 E38Z E39Z E40Z E41Z E42Z E43Z E44Z E45Z E45Zout1 E45Zout2 E45Zout3 E45Zout4 E45Zout5 ELout1 E45Zout"/>
    <route id="E44Bin3_E59Bout3.qTruck.15.0" edges="E44Bin3 E44Bin2 E44Bin2.1 E44Bin1 E44B E45B E46B E47B E48B E49B E50B E51B E52B E53B E54B E55B E56B E57B E58B E59B E59Bout1 E59Bout2 E59Bout3"/>
    <route id="E56Zin3_E61Z.qTruck.15.0" edges="E56Zin3 E56Zin2 E56Zin2.1 E56Zin1 E56Z E57Z E58Z E59Z E60Z E61Z"/>
    <route id="E5Zin2_E20Zout2.qTruck.15.0" edges="E5Zin2 E5Zin1 E5Zin1.0 E5Z E6Z E7Z E8Z E9Z E10Z E11Z E12Z E13Z E14Z E15Z E16Z E17Z E18Z E19Z E20Z E20Zout1 E20Zout2"/>
    <route id="E62Bin2_E62B.qTruck.15.0" edges="E62Bin2 E62Bin1 E62Bin1.0 E62B"/>
    <route id="E1B_E62B.qTruck.20.0" edges="E1B E2B E3B E4B E5B E6B E7B E8B E9B E10B E11B E12B E13B E14B E15B E16B E17B E18B E19B E20B E21B E22B E23B E24B E25B E26B E27B E28B E29B E30B E31B E32B E33B E34B E35B E36B E37B E38B E39B E40B E41B E42B E43B E44B E45B E46B E47B E48B E49B E50B E51B E52B E53B E54B E55B E56B E57B E58B E59B E60B E61B E62B"/>
    <route id="E1Z_E61Z.qTruck.20.0" edges="E1Z E2Z E3Z E4Z E5Z E6Z E7Z E8Z E9Z E10Z E11Z E12Z E13Z E14Z E15Z E16Z E17Z E18Z E19Z E20Z E21Z E22Z E23Z E24Z E25Z E26Z E27Z E28Z E29Z E30Z E31Z E32Z E33Z E34Z E35Z E36Z E37Z E38Z E39Z E40Z E41Z E42Z E43Z E44Z E45Z E46Z E47Z E48Z E49Z E50Z E51Z E52Z E53Z E54Z E55Z E56Z E57Z E58Z E59Z E60Z E61Z"/>
    <route id="E38Zin3_E45Zout.qTruck.20.0" edges="E38Zin3 E38Zin2 E38Zin1 E38Zin1.0 E38Z E39Z E40Z E41Z E42Z E43Z E44Z E45Z E45Zout1 E45Zout2 E45Zout3 E45Zout4 E45Zout5 ELout1 E45Zout"/>
    <route id="E44Bin3_E59Bout3.qTruck.20.0" edges="E44Bin3 E44Bin2 E44Bin2.1 E44Bin1 E44B E45B E46B E47B E48B E49B E50B E51B E52B E53B E54B E55B E56B E57B E58B E59B E59Bout1 E59Bout2 E59Bout3"/>
    <route id="E56Zin3_E61Z.qTruck.20.0" edges="E56Zin3 E56Zin2 E56Zin2.1 E56Zin1 E56Z E57Z E58Z E59Z E60Z E61Z"/>
    <route id="E5Zin2_E20Zout2.qTruck.20.0" edges="E5Zin2 E5Zin1 E5Zin1.0 E5Z E6Z E7Z E8Z E9Z E10Z E11Z E12Z E13Z E14Z E15Z E16Z E17Z E18Z E19Z E20Z E20Zout1 E20Zout2"/>
    <route id="E62Bin2_E62B.qTruck.20.0" edges="E62Bin2 E62Bin1 E62Bin1.0 E62B"/>
    <route id="E1B_E62B.qTruck.25.0" edges="E1B E2B E3B E4B E5B E6B E7B E8B E9B E10B E11B E12B E13B E14B E15B E16B E17B E18B E19B E20B E21B E22B E23B E24B E25B E26B E27B E28B E29B E30B E31B E32B E33B E34B E35B E36B E37B E38B E39B E40B E41B E42B E43B E44B E45B E46B E47B E48B E49B E50B E51B E52B E53B E54B E55B E56B E57B E58B E59B E60B E61B E62B"/>
    <route id="E1Z_E61Z.qTruck.25.0" edges="E1Z E2Z E3Z E4Z E5Z E6Z E7Z E8Z E9Z E10Z E11Z E12Z E13Z E14Z E15Z E16Z E17Z E18Z E19Z E20Z E21Z E22Z E23Z E24Z E25Z E26Z E27Z E28Z E29Z E30Z E31Z E32Z E33Z E34Z E35Z E36Z E37Z E38Z E39Z E40Z E41Z E42Z E43Z E44Z E45Z E46Z E47Z E48Z E49Z E50Z E51Z E52Z E53Z E54Z E55Z E56Z E57Z E58Z E59Z E60Z E61Z"/>
    <route id="E38Zin3_E45Zout.qTruck.25.0" edges="E38Zin3 E38Zin2 E38Zin1 E38Zin1.0 E38Z E39Z E40Z E41Z E42Z E43Z E44Z E45Z E45Zout1 E45Zout2 E45Zout3 E45Zout4 E45Zout5 ELout1 E45Zout"/>
    <route id="E44Bin3_E59Bout3.qTruck.25.0" edges="E44Bin3 E44Bin2 E44Bin2.1 E44Bin1 E44B E45B E46B E47B E48B E49B E50B E51B E52B E53B E54B E55B E56B E57B E58B E59B E59Bout1 E59Bout2 E59Bout3"/>
    <route id="E56Zin3_E61Z.qTruck.25.0" edges="E56Zin3 E56Zin2 E56Zin2.1 E56Zin1 E56Z E57Z E58Z E59Z E60Z E61Z"/>
    <route id="E5Zin2_E20Zout2.qTruck.25.0" edges="E5Zin2 E5Zin1 E5Zin1.0 E5Z E6Z E7Z E8Z E9Z E10Z E11Z E12Z E13Z E14Z E15Z E16Z E17Z E18Z E19Z E20Z E20Zout1 E20Zout2"/>
    <route id="E62Bin2_E62B.qTruck.25.0" edges="E62Bin2 E62Bin1 E62Bin1.0 E62B"/>
    <route id="E17Bin_E23Bout3.qTruck.30.0" edges="E17Bin ELin1 E17Bin3 E17Bin2 E17Bin2.1 E17Bin1 E17B E18B E19B E20B E21B E22B E23B E23Bout1 E23Bout2 E23Bout3"/>
    <route id="E1B_E62B.qTruck.30.0" edges="E1B E2B E3B E4B E5B E6B E7B E8B E9B E10B E11B E12B E13B E14B E15B E16B E17B E18B E19B E20B E21B E22B E23B E24B E25B E26B E27B E28B E29B E30B E31B E32B E33B E34B E35B E36B E37B E38B E39B E40B E41B E42B E43B E44B E45B E46B E47B E48B E49B E50B E51B E52B E53B E54B E55B E56B E57B E58B E59B E60B E61B E62B"/>
    <route id="E1Z_E61Z.qTruck.30.0" edges="E1Z E2Z E3Z E4Z E5Z E6Z E7Z E8Z E9Z E10Z E11Z E12Z E13Z E14Z E15Z E16Z E17Z E18Z E19Z E20Z E21Z E22Z E23Z E24Z E25Z E26Z E27Z E28Z E29Z E30Z E31Z E32Z E33Z E34Z E35Z E36Z E37Z E38Z E39Z E40Z E41Z E42Z E43Z E44Z E45Z E46Z E47Z E48Z E49Z E50Z E51Z E52Z E53Z E54Z E55Z E56Z E57Z E58Z E59Z E60Z E61Z"/>
    <route id="E38Zin3_E45Zout.qTruck.30.0" edges="E38Zin3 E38Zin2 E38Zin1 E38Zin1.0 E38Z E39Z E40Z E41Z E42Z E43Z E44Z E45Z E45Zout1 E45Zout2 E45Zout3 E45Zout4 E45Zout5 ELout1 E45Zout"/>
    <route id="E44Bin3_E59Bout3.qTruck.30.0" edges="E44Bin3 E44Bin2 E44Bin2.1 E44Bin1 E44B E45B E46B E47B E48B E49B E50B E51B E52B E53B E54B E55B E56B E57B E58B E59B E59Bout1 E59Bout2 E59Bout3"/>
    <route id="E56Zin3_E61Z.qTruck.30.0" edges="E56Zin3 E56Zin2 E56Zin2.1 E56Zin1 E56Z E57Z E58Z E59Z E60Z E61Z"/>
    <route id="E5Zin2_E20Zout2.qTruck.30.0" edges="E5Zin2 E5Zin1 E5Zin1.0 E5Z E6Z E7Z E8Z E9Z E10Z E11Z E12Z E13Z E14Z E15Z E16Z E17Z E18Z E19Z E20Z E20Zout1 E20Zout2"/>
    <route id="E62Bin2_E62B.qTruck.30.0" edges="E62Bin2 E62Bin1 E62Bin1.0 E62B"/>
    <route id="E1B_E62B.qTruck.35.0" edges="E1B E2B E3B E4B E5B E6B E7B E8B E9B E10B E11B E12B E13B E14B E15B E16B E17B E18B E19B E20B E21B E22B E23B E24B E25B E26B E27B E28B E29B E30B E31B E32B E33B E34B E35B E36B E37B E38B E39B E40B E41B E42B E43B E44B E45B E46B E47B E48B E49B E50B E51B E52B E53B E54B E55B E56B E57B E58B E59B E60B E61B E62B"/>
    <route id="E1Z_E61Z.qTruck.35.0" edges="E1Z E2Z E3Z E4Z E5Z E6Z E7Z E8Z E9Z E10Z E11Z E12Z E13Z E14Z E15Z E16Z E17Z E18Z E19Z E20Z E21Z E22Z E23Z E24Z E25Z E26Z E27Z E28Z E29Z E30Z E31Z E32Z E33Z E34Z E35Z E36Z E37Z E38Z E39Z E40Z E41Z E42Z E43Z E44Z E45Z E46Z E47Z E48Z E49Z E50Z E51Z E52Z E53Z E54Z E55Z E56Z E57Z E58Z E59Z E60Z E61Z"/>
    <route id="E38Zin3_E45Zout.qTruck.35.0" edges="E38Zin3 E38Zin2 E38Zin1 E38Zin1.0 E38Z E39Z E40Z E41Z E42Z E43Z E44Z E45Z E45Zout1 E45Zout2 E45Zout3 E45Zout4 E45Zout5 ELout1 E45Zout"/>
    <route id="E44Bin3_E59Bout3.qTruck.35.0" edges="E44Bin3 E44Bin2 E44Bin2.1 E44Bin1 E44B E45B E46B E47B E48B E49B E50B E51B E52B E53B E54B E55B E56B E57B E58B E59B E59Bout1 E59Bout2 E59Bout3"/>
    <route id="E56Zin3_E61Z.qTruck.35.0" edges="E56Zin3 E56Zin2 E56Zin2.1 E56Zin1 E56Z E57Z E58Z E59Z E60Z E61Z"/>
    <route id="E5Zin2_E20Zout2.qTruck.35.0" edges="E5Zin2 E5Zin1 E5Zin1.0 E5Z E6Z E7Z E8Z E9Z E10Z E11Z E12Z E13Z E14Z E15Z E16Z E17Z E18Z E19Z E20Z E20Zout1 E20Zout2"/>
    <route id="E62Bin2_E62B.qTruck.35.0" edges="E62Bin2 E62Bin1 E62Bin1.0 E62B"/>
    <route id="E17Bin_E23Bout3.qTruck.40.0" edges="E17Bin ELin1 E17Bin3 E17Bin2 E17Bin2.1 E17Bin1 E17B E18B E19B E20B E21B E22B E23B E23Bout1 E23Bout2 E23Bout3"/>
    <route id="E1B_E62B.qTruck.40.0" edges="E1B E2B E3B E4B E5B E6B E7B E8B E9B E10B E11B E12B E13B E14B E15B E16B E17B E18B E19B E20B E21B E22B E23B E24B E25B E26B E27B E28B E29B E30B E31B E32B E33B E34B E35B E36B E37B E38B E39B E40B E41B E42B E43B E44B E45B E46B E47B E48B E49B E50B E51B E52B E53B E54B E55B E56B E57B E58B E59B E60B E61B E62B"/>
    <route id="E1Z_E61Z.qTruck.40.0" edges="E1Z E2Z E3Z E4Z E5Z E6Z E7Z E8Z E9Z E10Z E11Z E12Z E13Z E14Z E15Z E16Z E17Z E18Z E19Z E20Z E21Z E22Z E23Z E24Z E25Z E26Z E27Z E28Z E29Z E30Z E31Z E32Z E33Z E34Z E35Z E36Z E37Z E38Z E39Z E40Z E41Z E42Z E43Z E44Z E45Z E46Z E47Z E48Z E49Z E50Z E51Z E52Z E53Z E54Z E55Z E56Z E57Z E58Z E59Z E60Z E61Z"/>
    <route id="E38Zin3_E45Zout.qTruck.40.0" edges="E38Zin3 E38Zin2 E38Zin1 E38Zin1.0 E38Z E39Z E40Z E41Z E42Z E43Z E44Z E45Z E45Zout1 E45Zout2 E45Zout3 E45Zout4 E45Zout5 ELout1 E45Zout"/>
    <route id="E44Bin3_E59Bout3.qTruck.40.0" edges="E44Bin3 E44Bin2 E44Bin2.1 E44Bin1 E44B E45B E46B E47B E48B E49B E50B E51B E52B E53B E54B E55B E56B E57B E58B E59B E59Bout1 E59Bout2 E59Bout3"/>
    <route id="E56Zin3_E61Z.qTruck.40.0" edges="E56Zin3 E56Zin2 E56Zin2.1 E56Zin1 E56Z E57Z E58Z E59Z E60Z E61Z"/>
    <route id="E5Zin2_E20Zout2.qTruck.40.0" edges="E5Zin2 E5Zin1 E5Zin1.0 E5Z E6Z E7Z E8Z E9Z E10Z E11Z E12Z E13Z E14Z E15Z E16Z E17Z E18Z E19Z E20Z E20Zout1 E20Zout2"/>
    <route id="E62Bin2_E62B.qTruck.40.0" edges="E62Bin2 E62Bin1 E62Bin1.0 E62B"/>
    <route id="E1B_E62B.qTruck.45.0" edges="E1B E2B E3B E4B E5B E6B E7B E8B E9B E10B E11B E12B E13B E14B E15B E16B E17B E18B E19B E20B E21B E22B E23B E24B E25B E26B E27B E28B E29B E30B E31B E32B E33B E34B E35B E36B E37B E38B E39B E40B E41B E42B E43B E44B E45B E46B E47B E48B E49B E50B E51B E52B E53B E54B E55B E56B E57B E58B E59B E60B E61B E62B"/>
    <route id="E1Z_E61Z.qTruck.45.0" edges="E1Z E2Z E3Z E4Z E5Z E6Z E7Z E8Z E9Z E10Z E11Z E12Z E13Z E14Z E15Z E16Z E17Z E18Z E19Z E20Z E21Z E22Z E23Z E24Z E25Z E26Z E27Z E28Z E29Z E30Z E31Z E32Z E33Z E34Z E35Z E36Z E37Z E38Z E39Z E40Z E41Z E42Z E43Z E44Z E45Z E46Z E47Z E48Z E49Z E50Z E51Z E52Z E53Z E54Z E55Z E56Z E57Z E58Z E59Z E60Z E61Z"/>
    <route id="E38Zin3_E45Zout.qTruck.45.0" edges="E38Zin3 E38Zin2 E38Zin1 E38Zin1.0 E38Z E39Z E40Z E41Z E42Z E43Z E44Z E45Z E45Zout1 E45Zout2 E45Zout3 E45Zout4 E45Zout5 ELout1 E45Zout"/>
    <route id="E44Bin3_E59Bout3.qTruck.45.0" edges="E44Bin3 E44Bin2 E44Bin2.1 E44Bin1 E44B E45B E46B E47B E48B E49B E50B E51B E52B E53B E54B E55B E56B E57B E58B E59B E59Bout1 E59Bout2 E59Bout3"/>
    <route id="E56Zin3_E61Z.qTruck.45.0" edges="E56Zin3 E56Zin2 E56Zin2.1 E56Zin1 E56Z E57Z E58Z E59Z E60Z E61Z"/>
    <route id="E5Zin2_E20Zout2.qTruck.45.0" edges="E5Zin2 E5Zin1 E5Zin1.0 E5Z E6Z E7Z E8Z E9Z E10Z E11Z E12Z E13Z E14Z E15Z E16Z E17Z E18Z E19Z E20Z E20Zout1 E20Zout2"/>
    <route id="E62Bin2_E62B.qTruck.45.0" edges="E62Bin2 E62Bin1 E62Bin1.0 E62B"/>
    <route id="E1B_E62B.qTruck.50.0" edges="E1B E2B E3B E4B E5B E6B E7B E8B E9B E10B E11B E12B E13B E14B E15B E16B E17B E18B E19B E20B E21B E22B E23B E24B E25B E26B E27B E28B E29B E30B E31B E32B E33B E34B E35B E36B E37B E38B E39B E40B E41B E42B E43B E44B E45B E46B E47B E48B E49B E50B E51B E52B E53B E54B E55B E56B E57B E58B E59B E60B E61B E62B"/>
    <route id="E1Z_E61Z.qTruck.50.0" edges="E1Z E2Z E3Z E4Z E5Z E6Z E7Z E8Z E9Z E10Z E11Z E12Z E13Z E14Z E15Z E16Z E17Z E18Z E19Z E20Z E21Z E22Z E23Z E24Z E25Z E26Z E27Z E28Z E29Z E30Z E31Z E32Z E33Z E34Z E35Z E36Z E37Z E38Z E39Z E40Z E41Z E42Z E43Z E44Z E45Z E46Z E47Z E48Z E49Z E50Z E51Z E52Z E53Z E54Z E55Z E56Z E57Z E58Z E59Z E60Z E61Z"/>
    <route id="E38Zin3_E45Zout.qTruck.50.0" edges="E38Zin3 E38Zin2 E38Zin1 E38Zin1.0 E38Z E39Z E40Z E41Z E42Z E43Z E44Z E45Z E45Zout1 E45Zout2 E45Zout3 E45Zout4 E45Zout5 ELout1 E45Zout"/>
    <route id="E44Bin3_E59Bout3.qTruck.50.0" edges="E44Bin3 E44Bin2 E44Bin2.1 E44Bin1 E44B E45B E46B E47B E48B E49B E50B E51B E52B E53B E54B E55B E56B E57B E58B E59B E59Bout1 E59Bout2 E59Bout3"/>
    <route id="E56Zin3_E61Z.qTruck.50.0" edges="E56Zin3 E56Zin2 E56Zin2.1 E56Zin1 E56Z E57Z E58Z E59Z E60Z E61Z"/>
    <route id="E5Zin2_E20Zout2.qTruck.50.0" edges="E5Zin2 E5Zin1 E5Zin1.0 E5Z E6Z E7Z E8Z E9Z E10Z E11Z E12Z E13Z E14Z E15Z E16Z E17Z E18Z E19Z E20Z E20Zout1 E20Zout2"/>
    <route id="E62Bin2_E62B.qTruck.50.0" edges="E62Bin2 E62Bin1 E62Bin1.0 E62B"/>
    <route id="E1B_E3Bout3.qTruck.55.0" edges="E1B E2B E3B E3Bout1 E3Bout2 E3Bout3"/>
    <route id="E1B_E62B.qTruck.55.0" edges="E1B E2B E3B E4B E5B E6B E7B E8B E9B E10B E11B E12B E13B E14B E15B E16B E17B E18B E19B E20B E21B E22B E23B E24B E25B E26B E27B E28B E29B E30B E31B E32B E33B E34B E35B E36B E37B E38B E39B E40B E41B E42B E43B E44B E45B E46B E47B E48B E49B E50B E51B E52B E53B E54B E55B E56B E57B E58B E59B E60B E61B E62B"/>
    <route id="E1Z_E61Z.qTruck.55.0" edges="E1Z E2Z E3Z E4Z E5Z E6Z E7Z E8Z E9Z E10Z E11Z E12Z E13Z E14Z E15Z E16Z E17Z E18Z E19Z E20Z E21Z E22Z E23Z E24Z E25Z E26Z E27Z E28Z E29Z E30Z E31Z E32Z E33Z E34Z E35Z E36Z E37Z E38Z E39Z E40Z E41Z E42Z E43Z E44Z E45Z E46Z E47Z E48Z E49Z E50Z E51Z E52Z E53Z E54Z E55Z E56Z E57Z E58Z E59Z E60Z E61Z"/>
    <route id="E38Zin3_E45Zout.qTruck.55.0" edges="E38Zin3 E38Zin2 E38Zin1 E38Zin1.0 E38Z E39Z E40Z E41Z E42Z E43Z E44Z E45Z E45Zout1 E45Zout2 E45Zout3 E45Zout4 E45Zout5 ELout1 E45Zout"/>
    <route id="E44Bin3_E59Bout3.qTruck.55.0" edges="E44Bin3 E44Bin2 E44Bin2.1 E44Bin1 E44B E45B E46B E47B E48B E49B E50B E51B E52B E53B E54B E55B E56B E57B E58B E59B E59Bout1 E59Bout2 E59Bout3"/>
    <route id="E56Zin3_E61Z.qTruck.55.0" edges="E56Zin3 E56Zin2 E56Zin2.1 E56Zin1 E56Z E57Z E58Z E59Z E60Z E61Z"/>
    <route id="E5Zin2_E20Zout2.qTruck.55.0" edges="E5Zin2 E5Zin1 E5Zin1.0 E5Z E6Z E7Z E8Z E9Z E10Z E11Z E12Z E13Z E14Z E15Z E16Z E17Z E18Z E19Z E20Z E20Zout1 E20Zout2"/>
    <route id="E62Bin2_E62B.qTruck.55.0" edges="E62Bin2 E62Bin1 E62Bin1.0 E62B"/>
    <route id="E6Bin4_E62B.qTruck.55.0" edges="E6Bin4 E6Bin3 E6Bin2 E6Bin2.1 E6Bin1 E6B E7B E8B E9B E10B E11B E12B E13B E14B E15B E16B E17B E18B E19B E20B E21B E22B E23B E24B E25B E26B E27B E28B E29B E30B E31B E32B E33B E34B E35B E36B E37B E38B E39B E40B E41B E42B E43B E44B E45B E46B E47B E48B E49B E50B E51B E52B E53B E54B E55B E56B E57B E58B E59B E60B E61B E62B"/>
    <route id="E17Bin_E23Bout3.qTruck.60.0" edges="E17Bin ELin1 E17Bin3 E17Bin2 E17Bin2.1 E17Bin1 E17B E18B E19B E20B E21B E22B E23B E23Bout1 E23Bout2 E23Bout3"/>
    <route id="E1B_E62B.qTruck.60.0" edges="E1B E2B E3B E4B E5B E6B E7B E8B E9B E10B E11B E12B E13B E14B E15B E16B E17B E18B E19B E20B E21B E22B E23B E24B E25B E26B E27B E28B E29B E30B E31B E32B E33B E34B E35B E36B E37B E38B E39B E40B E41B E42B E43B E44B E45B E46B E47B E48B E49B E50B E51B E52B E53B E54B E55B E56B E57B E58B E59B E60B E61B E62B"/>
    <route id="E1Z_E61Z.qTruck.60.0" edges="E1Z E2Z E3Z E4Z E5Z E6Z E7Z E8Z E9Z E10Z E11Z E12Z E13Z E14Z E15Z E16Z E17Z E18Z E19Z E20Z E21Z E22Z E23Z E24Z E25Z E26Z E27Z E28Z E29Z E30Z E31Z E32Z E33Z E34Z E35Z E36Z E37Z E38Z E39Z E40Z E41Z E42Z E43Z E44Z E45Z E46Z E47Z E48Z E49Z E50Z E51Z E52Z E53Z E54Z E55Z E56Z E57Z E58Z E59Z E60Z E61Z"/>
    <route id="E23Zin2_E33Zout3.qTruck.60.0" edges="E23Zin2 E23Zin1 E23Zin1.0 E23Z E24Z E25Z E26Z E27Z E28Z E29Z E30Z E31Z E32Z E33Z E33Zout1 E33Zout2 E33Zout3"/>
    <route id="E38Zin3_E45Zout.qTruck.60.0" edges="E38Zin3 E38Zin2 E38Zin1 E38Zin1.0 E38Z E39Z E40Z E41Z E42Z E43Z E44Z E45Z E45Zout1 E45Zout2 E45Zout3 E45Zout4 E45Zout5 ELout1 E45Zout"/>
    <route id="E44Bin3_E59Bout3.qTruck.60.0" edges="E44Bin3 E44Bin2 E44Bin2.1 E44Bin1 E44B E45B E46B E47B E48B E49B E50B E51B E52B E53B E54B E55B E56B E57B E58B E59B E59Bout1 E59Bout2 E59Bout3"/>
    <route id="E48Zin_E52Zout3.qTruck.60.0" edges="E48Zin ELin1 E48Zin3 E48Zin2 E48Zin2.1 E48Zin1 E48Z E49Z E50Z E51Z E52Z E52Zout1 E52Zout2 E52Zout3"/>
    <route id="E56Zin3_E61Z.qTruck.60.0" edges="E56Zin3 E56Zin2 E56Zin2.1 E56Zin1 E56Z E57Z E58Z E59Z E60Z E61Z"/>
    <route id="E5Zin2_E20Zout2.qTruck.60.0" edges="E5Zin2 E5Zin1 E5Zin1.0 E5Z E6Z E7Z E8Z E9Z E10Z E11Z E12Z E13Z E14Z E15Z E16Z E17Z E18Z E19Z E20Z E20Zout1 E20Zout2"/>
    <route id="E62Bin2_E62B.qTruck.60.0" edges="E62Bin2 E62Bin1 E62Bin1.0 E62B"/>
    <route id="E17Bin_E23Bout3.qTruck.65.0" edges="E17Bin ELin1 E17Bin3 E17Bin2 E17Bin2.1 E17Bin1 E17B E18B E19B E20B E21B E22B E23B E23Bout1 E23Bout2 E23Bout3"/>
    <route id="E1B_E62B.qTruck.65.0" edges="E1B E2B E3B E4B E5B E6B E7B E8B E9B E10B E11B E12B E13B E14B E15B E16B E17B E18B E19B E20B E21B E22B E23B E24B E25B E26B E27B E28B E29B E30B E31B E32B E33B E34B E35B E36B E37B E38B E39B E40B E41B E42B E43B E44B E45B E46B E47B E48B E49B E50B E51B E52B E53B E54B E55B E56B E57B E58B E59B E60B E61B E62B"/>
    <route id="E1Z_E61Z.qTruck.65.0" edges="E1Z E2Z E3Z E4Z E5Z E6Z E7Z E8Z E9Z E10Z E11Z E12Z E13Z E14Z E15Z E16Z E17Z E18Z E19Z E20Z E21Z E22Z E23Z E24Z E25Z E26Z E27Z E28Z E29Z E30Z E31Z E32Z E33Z E34Z E35Z E36Z E37Z E38Z E39Z E40Z E41Z E42Z E43Z E44Z E45Z E46Z E47Z E48Z E49Z E50Z E51Z E52Z E53Z E54Z E55Z E56Z E57Z E58Z E59Z E60Z E61Z"/>
    <route id="E23Zin2_E33Zout3.qTruck.65.0" edges="E23Zin2 E23Zin1 E23Zin1.0 E23Z E24Z E25Z E26Z E27Z E28Z E29Z E30Z E31Z E32Z E33Z E33Zout1 E33Zout2 E33Zout3"/>
    <route id="E38Zin3_E45Zout.qTruck.65.0" edges="E38Zin3 E38Zin2 E38Zin1 E38Zin1.0 E38Z E39Z E40Z E41Z E42Z E43Z E44Z E45Z E45Zout1 E45Zout2 E45Zout3 E45Zout4 E45Zout5 ELout1 E45Zout"/>
    <route id="E44Bin3_E59Bout3.qTruck.65.0" edges="E44Bin3 E44Bin2 E44Bin2.1 E44Bin1 E44B E45B E46B E47B E48B E49B E50B E51B E52B E53B E54B E55B E56B E57B E58B E59B E59Bout1 E59Bout2 E59Bout3"/>
    <route id="E48Zin_E52Zout3.qTruck.65.0" edges="E48Zin ELin1 E48Zin3 E48Zin2 E48Zin2.1 E48Zin1 E48Z E49Z E50Z E51Z E52Z E52Zout1 E52Zout2 E52Zout3"/>
    <route id="E56Zin3_E61Z.qTruck.65.0" edges="E56Zin3 E56Zin2 E56Zin2.1 E56Zin1 E56Z E57Z E58Z E59Z E60Z E61Z"/>
    <route id="E5Zin2_E20Zout2.qTruck.65.0" edges="E5Zin2 E5Zin1 E5Zin1.0 E5Z E6Z E7Z E8Z E9Z E10Z E11Z E12Z E13Z E14Z E15Z E16Z E17Z E18Z E19Z E20Z E20Zout1 E20Zout2"/>
    <route id="E62Bin2_E62B.qTruck.65.0" edges="E62Bin2 E62Bin1 E62Bin1.0 E62B"/>
    <route id="E17Bin_E23Bout3.qTruck.70.0" edges="E17Bin ELin1 E17Bin3 E17Bin2 E17Bin2.1 E17Bin1 E17B E18B E19B E20B E21B E22B E23B E23Bout1 E23Bout2 E23Bout3"/>
    <route id="E1B_E62B.qTruck.70.0" edges="E1B E2B E3B E4B E5B E6B E7B E8B E9B E10B E11B E12B E13B E14B E15B E16B E17B E18B E19B E20B E21B E22B E23B E24B E25B E26B E27B E28B E29B E30B E31B E32B E33B E34B E35B E36B E37B E38B E39B E40B E41B E42B E43B E44B E45B E46B E47B E48B E49B E50B E51B E52B E53B E54B E55B E56B E57B E58B E59B E60B E61B E62B"/>
    <route id="E1Z_E61Z.qTruck.70.0" edges="E1Z E2Z E3Z E4Z E5Z E6Z E7Z E8Z E9Z E10Z E11Z E12Z E13Z E14Z E15Z E16Z E17Z E18Z E19Z E20Z E21Z E22Z E23Z E24Z E25Z E26Z E27Z E28Z E29Z E30Z E31Z E32Z E33Z E34Z E35Z E36Z E37Z E38Z E39Z E40Z E41Z E42Z E43Z E44Z E45Z E46Z E47Z E48Z E49Z E50Z E51Z E52Z E53Z E54Z E55Z E56Z E57Z E58Z E59Z E60Z E61Z"/>
    <route id="E23Zin2_E33Zout3.qTruck.70.0" edges="E23Zin2 E23Zin1 E23Zin1.0 E23Z E24Z E25Z E26Z E27Z E28Z E29Z E30Z E31Z E32Z E33Z E33Zout1 E33Zout2 E33Zout3"/>
    <route id="E38Zin3_E45Zout.qTruck.70.0" edges="E38Zin3 E38Zin2 E38Zin1 E38Zin1.0 E38Z E39Z E40Z E41Z E42Z E43Z E44Z E45Z E45Zout1 E45Zout2 E45Zout3 E45Zout4 E45Zout5 ELout1 E45Zout"/>
    <route id="E44Bin3_E59Bout3.qTruck.70.0" edges="E44Bin3 E44Bin2 E44Bin2.1 E44Bin1 E44B E45B E46B E47B E48B E49B E50B E51B E52B E53B E54B E55B E56B E57B E58B E59B E59Bout1 E59Bout2 E59Bout3"/>
    <route id="E48Zin_E52Zout3.qTruck.70.0" edges="E48Zin ELin1 E48Zin3 E48Zin2 E48Zin2.1 E48Zin1 E48Z E49Z E50Z E51Z E52Z E52Zout1 E52Zout2 E52Zout3"/>
    <route id="E56Zin3_E61Z.qTruck.70.0" edges="E56Zin3 E56Zin2 E56Zin2.1 E56Zin1 E56Z E57Z E58Z E59Z E60Z E61Z"/>
    <route id="E5Zin2_E20Zout2.qTruck.70.0" edges="E5Zin2 E5Zin1 E5Zin1.0 E5Z E6Z E7Z E8Z E9Z E10Z E11Z E12Z E13Z E14Z E15Z E16Z E17Z E18Z E19Z E20Z E20Zout1 E20Zout2"/>
    <route id="E62Bin2_E62B.qTruck.70.0" edges="E62Bin2 E62Bin1 E62Bin1.0 E62B"/>
    <route id="E17Bin_E23Bout3.qTruck.75.0" edges="E17Bin ELin1 E17Bin3 E17Bin2 E17Bin2.1 E17Bin1 E17B E18B E19B E20B E21B E22B E23B E23Bout1 E23Bout2 E23Bout3"/>
    <route id="E1B_E62B.qTruck.75.0" edges="E1B E2B E3B E4B E5B E6B E7B E8B E9B E10B E11B E12B E13B E14B E15B E16B E17B E18B E19B E20B E21B E22B E23B E24B E25B E26B E27B E28B E29B E30B E31B E32B E33B E34B E35B E36B E37B E38B E39B E40B E41B E42B E43B E44B E45B E46B E47B E48B E49B E50B E51B E52B E53B E54B E55B E56B E57B E58B E59B E60B E61B E62B"/>
    <route id="E1Z_E33Zout3.qTruck.75.0" edges="E1Z E2Z E3Z E4Z E5Z E6Z E7Z E8Z E9Z E10Z E11Z E12Z E13Z E14Z E15Z E16Z E17Z E18Z E19Z E20Z E21Z E22Z E23Z E24Z E25Z E26Z E27Z E28Z E29Z E30Z E31Z E32Z E33Z E33Zout1 E33Zout2 E33Zout3"/>
    <route id="E1Z_E61Z.qTruck.75.0" edges="E1Z E2Z E3Z E4Z E5Z E6Z E7Z E8Z E9Z E10Z E11Z E12Z E13Z E14Z E15Z E16Z E17Z E18Z E19Z E20Z E21Z E22Z E23Z E24Z E25Z E26Z E27Z E28Z E29Z E30Z E31Z E32Z E33Z E34Z E35Z E36Z E37Z E38Z E39Z E40Z E41Z E42Z E43Z E44Z E45Z E46Z E47Z E48Z E49Z E50Z E51Z E52Z E53Z E54Z E55Z E56Z E57Z E58Z E59Z E60Z E61Z"/>
    <route id="E23Zin2_E45Zout.qTruck.75.0" edges="E23Zin2 E23Zin1 E23Zin1.0 E23Z E24Z E25Z E26Z E27Z E28Z E29Z E30Z E31Z E32Z E33Z E34Z E35Z E36Z E37Z E38Z E39Z E40Z E41Z E42Z E43Z E44Z E45Z E45Zout1 E45Zout2 E45Zout3 E45Zout4 E45Zout5 ELout1 E45Zout"/>
    <route id="E38Zin5_E61Z.qTruck.75.0" edges="E38Zin5 E38Zin4 E38Zin2 E38Zin1 E38Zin1.0 E38Z E39Z E40Z E41Z E42Z E43Z E44Z E45Z E46Z E47Z E48Z E49Z E50Z E51Z E52Z E53Z E54Z E55Z E56Z E57Z E58Z E59Z E60Z E61Z"/>
    <route id="E44Bin3_E59Bout3.qTruck.75.0" edges="E44Bin3 E44Bin2 E44Bin2.1 E44Bin1 E44B E45B E46B E47B E48B E49B E50B E51B E52B E53B E54B E55B E56B E57B E58B E59B E59Bout1 E59Bout2 E59Bout3"/>
    <route id="E48Zin_E52Zout3.qTruck.75.0" edges="E48Zin ELin1 E48Zin3 E48Zin2 E48Zin2.1 E48Zin1 E48Z E49Z E50Z E51Z E52Z E52Zout1 E52Zout2 E52Zout3"/>
    <route id="E56Zin3_E61Z.qTruck.75.0" edges="E56Zin3 E56Zin2 E56Zin2.1 E56Zin1 E56Z E57Z E58Z E59Z E60Z E61Z"/>
    <route id="E5Zin2_E20Zout2.qTruck.75.0" edges="E5Zin2 E5Zin1 E5Zin1.0 E5Z E6Z E7Z E8Z E9Z E10Z E11Z E12Z E13Z E14Z E15Z E16Z E17Z E18Z E19Z E20Z E20Zout1 E20Zout2"/>
    <route id="E62Bin2_E62B.qTruck.75.0" edges="E62Bin2 E62Bin1 E62Bin1.0 E62B"/>
    <route id="E17Bin_E23Bout3.qTruck.80.0" edges="E17Bin ELin1 E17Bin3 E17Bin2 E17Bin2.1 E17Bin1 E17B E18B E19B E20B E21B E22B E23B E23Bout1 E23Bout2 E23Bout3"/>
    <route id="E1B_E62B.qTruck.80.0" edges="E1B E2B E3B E4B E5B E6B E7B E8B E9B E10B E11B E12B E13B E14B E15B E16B E17B E18B E19B E20B E21B E22B E23B E24B E25B E26B E27B E28B E29B E30B E31B E32B E33B E34B E35B E36B E37B E38B E39B E40B E41B E42B E43B E44B E45B E46B E47B E48B E49B E50B E51B E52B E53B E54B E55B E56B E57B E58B E59B E60B E61B E62B"/>
    <route id="E1Z_E61Z.qTruck.80.0" edges="E1Z E2Z E3Z E4Z E5Z E6Z E7Z E8Z E9Z E10Z E11Z E12Z E13Z E14Z E15Z E16Z E17Z E18Z E19Z E20Z E21Z E22Z E23Z E24Z E25Z E26Z E27Z E28Z E29Z E30Z E31Z E32Z E33Z E34Z E35Z E36Z E37Z E38Z E39Z E40Z E41Z E42Z E43Z E44Z E45Z E46Z E47Z E48Z E49Z E50Z E51Z E52Z E53Z E54Z E55Z E56Z E57Z E58Z E59Z E60Z E61Z"/>
    <route id="E23Zin2_E33Zout3.qTruck.80.0" edges="E23Zin2 E23Zin1 E23Zin1.0 E23Z E24Z E25Z E26Z E27Z E28Z E29Z E30Z E31Z E32Z E33Z E33Zout1 E33Zout2 E33Zout3"/>
    <route id="E38Zin3_E45Zout.qTruck.80.0" edges="E38Zin3 E38Zin2 E38Zin1 E38Zin1.0 E38Z E39Z E40Z E41Z E42Z E43Z E44Z E45Z E45Zout1 E45Zout2 E45Zout3 E45Zout4 E45Zout5 ELout1 E45Zout"/>
    <route id="E44Bin3_E59Bout3.qTruck.80.0" edges="E44Bin3 E44Bin2 E44Bin2.1 E44Bin1 E44B E45B E46B E47B E48B E49B E50B E51B E52B E53B E54B E55B E56B E57B E58B E59B E59Bout1 E59Bout2 E59Bout3"/>
    <route id="E48Zin_E52Zout3.qTruck.80.0" edges="E48Zin ELin1 E48Zin3 E48Zin2 E48Zin2.1 E48Zin1 E48Z E49Z E50Z E51Z E52Z E52Zout1 E52Zout2 E52Zout3"/>
    <route id="E56Zin3_E61Z.qTruck.80.0" edges="E56Zin3 E56Zin2 E56Zin2.1 E56Zin1 E56Z E57Z E58Z E59Z E60Z E61Z"/>
    <route id="E5Zin2_E20Zout2.qTruck.80.0" edges="E5Zin2 E5Zin1 E5Zin1.0 E5Z E6Z E7Z E8Z E9Z E10Z E11Z E12Z E13Z E14Z E15Z E16Z E17Z E18Z E19Z E20Z E20Zout1 E20Zout2"/>
    <route id="E62Bin2_E62B.qTruck.80.0" edges="E62Bin2 E62Bin1 E62Bin1.0 E62B"/>
    <route id="E17Bin_E23Bout3.qTruck.85.0" edges="E17Bin ELin1 E17Bin3 E17Bin2 E17Bin2.1 E17Bin1 E17B E18B E19B E20B E21B E22B E23B E23Bout1 E23Bout2 E23Bout3"/>
    <route id="E1B_E62B.qTruck.85.0" edges="E1B E2B E3B E4B E5B E6B E7B E8B E9B E10B E11B E12B E13B E14B E15B E16B E17B E18B E19B E20B E21B E22B E23B E24B E25B E26B E27B E28B E29B E30B E31B E32B E33B E34B E35B E36B E37B E38B E39B E40B E41B E42B E43B E44B E45B E46B E47B E48B E49B E50B E51B E52B E53B E54B E55B E56B E57B E58B E59B E60B E61B E62B"/>
    <route id="E1Z_E61Z.qTruck.85.0" edges="E1Z E2Z E3Z E4Z E5Z E6Z E7Z E8Z E9Z E10Z E11Z E12Z E13Z E14Z E15Z E16Z E17Z E18Z E19Z E20Z E21Z E22Z E23Z E24Z E25Z E26Z E27Z E28Z E29Z E30Z E31Z E32Z E33Z E34Z E35Z E36Z E37Z E38Z E39Z E40Z E41Z E42Z E43Z E44Z E45Z E46Z E47Z E48Z E49Z E50Z E51Z E52Z E53Z E54Z E55Z E56Z E57Z E58Z E59Z E60Z E61Z"/>
    <route id="E23Zin2_E33Zout3.qTruck.85.0" edges="E23Zin2 E23Zin1 E23Zin1.0 E23Z E24Z E25Z E26Z E27Z E28Z E29Z E30Z E31Z E32Z E33Z E33Zout1 E33Zout2 E33Zout3"/>
    <route id="E38Zin3_E45Zout.qTruck.85.0" edges="E38Zin3 E38Zin2 E38Zin1 E38Zin1.0 E38Z E39Z E40Z E41Z E42Z E43Z E44Z E45Z E45Zout1 E45Zout2 E45Zout3 E45Zout4 E45Zout5 ELout1 E45Zout"/>
    <route id="E44Bin3_E59Bout3.qTruck.85.0" edges="E44Bin3 E44Bin2 E44Bin2.1 E44Bin1 E44B E45B E46B E47B E48B E49B E50B E51B E52B E53B E54B E55B E56B E57B E58B E59B E59Bout1 E59Bout2 E59Bout3"/>