<routes>
    <route id="E1B_E59Bout3.qBus.10.0" edges="E1B E2B E3B E4B E5B E6B E7B E8B E9B E10B E11B E12B E13B E14B E15B E16B E17B E18B E19B E20B E21B E22B E23B E24B E25B E26B E27B E28B E29B E30B E31B E32B E33B E34B E35B E36B E37B E38B E39B E40B E41B E42B E43B E44B E45B E46B E47B E48B E49B E50B E51B E52B E53B E54B E55B E56B E57B E58B E59B E59Bout1 E59Bout2 E59Bout3"/>
    <route id="E1Z_E1Zout3.qBus.10.0" edges="E1Z E1Zout1 E1Zout2 E1Zout3"/>
    <route id="E5Zin2_E61Z.qBus.10.0" edges="E5Zin2 E5Zin1 E5Zin1.0 E5Z E6Z E7Z E8Z E9Z E10Z E11Z E12Z E13Z E14Z E15Z E16Z E17Z E18Z E19Z E20Z E21Z E22Z E23Z E24Z E25Z E26Z E27Z E28Z E29Z E30Z E31Z E32Z E33Z E34Z E35Z E36Z E37Z E38Z E39Z E40Z E41Z E42Z E43Z E44Z E45Z E46Z E47Z E48Z E49Z E50Z E51Z E52Z E53Z E54Z E55Z E56Z E57Z E58Z E59Z E60Z E61Z"/>
    <route id="E62Bin2_E62B.qBus.10.0" edges="E62Bin2 E62Bin1 E62Bin1.0 E62B"/>
    <route id="E1B_E59Bout3.qBus.25.0" edges="E1B E2B E3B E4B E5B E6B E7B E8B E9B E10B E11B E12B E13B E14B E15B E16B E17B E18B E19B E20B E21B E22B E23B E24B E25B E26B E27B E28B E29B E30B E31B E32B E33B E34B E35B E36B E37B E38B E39B E40B E41B E42B E43B E44B E45B E46B E47B E48B E49B E50B E51B E52B E53B E54B E55B E56B E57B E58B E59B E59Bout1 E59Bout2 E59Bout3"/>
    <route id="E1Z_E1Zout3.qBus.25.0" edges="E1Z E1Zout1 E1Zout2 E1Zout3"/>
    <route id="E5Zin2_E61Z.qBus.25.0" edges="E5Zin2 E5Zin1 E5Zin1.0 E5Z E6Z E7Z E8Z E9Z E10Z E11Z E12Z E13Z E14Z E15Z E16Z E17Z E18Z E19Z E20Z E21Z E22Z E23Z E24Z E25Z E26Z E27Z E28Z E29Z E30Z E31Z E32Z E33Z E34Z E35Z E36Z E37Z E38Z E39Z E40Z E41Z E42Z E43Z E44Z E45Z E46Z E47Z E48Z E49Z E50Z E51Z E52Z E53Z E54Z E55Z E56Z E57Z E58Z E59Z E60Z E61Z"/>
    <route id="E62Bin2_E62B.qBus.25.0" edges="E62Bin2 E62Bin1 E62Bin1.0 E62B"/>
    <route id="E1B_E23Bout3.qBus.270.0" edges="E1B E2B E3B E4B E5B E6B E7B E8B E9B E10B E11B E12B E13B E14B E15B E16B E17B E18B E19B E20B E21B E22B E23B E23Bout1 E23Bout2 E23Bout3"/>
    <route id="E1B_E62B.qBus.300.0" edges="E1B E2B E3B E4B E5B E6B E7B E8B E9B E10B E11B E12B E13B E14B E15B E16B E17B E18B E19B E20B E21B E22B E23B E24B E25B E26B E27B E28B E29B E30B E31B E32B E33B E34B E35B E36B E37B E38B E39B E40B E41B E42B E43B E44B E45B E46B E47B E48B E49B E50B E51B E52B E53B E54B E55B E56B E57B E58B E59B E60B E61B E62B"/>
    <route id="E1Z_E61Z.qBus.300.0" edges="E1Z E2Z E3Z E4Z E5Z E6Z E7Z E8Z E9Z E10Z E11Z E12Z E13Z E14Z E15Z E16Z E17Z E18Z E19Z E20Z E21Z E22Z E23Z E24Z E25Z E26Z E27Z E28Z E29Z E30Z E31Z E32Z E33Z E34Z E35Z E36Z E37Z E38Z E39Z E40Z E41Z E42Z E43Z E44Z E45Z E46Z E47Z E48Z E49Z E50Z E51Z E52Z E53Z E54Z E55Z E56Z E57Z E58Z E59Z E60Z E61Z"/>
    <route id="E1B_E62B.qBus.305.0" edges="E1B E2B E3B E4B E5B E6B E7B E8B E9B E10B E11B E12B E13B E14B E15B E16B E17B E18B E19B E20B E21B E22B E23B E24B E25B E26B E27B E28B E29B E30B E31B E32B E33B E34B E35B E36B E37B E38B E39B E40B E41B E42B E43B E44B E45B E46B E47B E48B E49B E50B E51B E52B E53B E54B E55B E56B E57B E58B E59B E60B E61B E62B"/>
    <route id="E1Z_E61Z.qBus.305.0" edges="E1Z E2Z E3Z E4Z E5Z E6Z E7Z E8Z E9Z E10Z E11Z E12Z E13Z E14Z E15Z E16Z E17Z E18Z E19Z E20Z E21Z E22Z E23Z E24Z E25Z E26Z E27Z E28Z E29Z E30Z E31Z E32Z E33Z E34Z E35Z E36Z E37Z E38Z E39Z E40Z E41Z E42Z E43Z E44Z E45Z E46Z E47Z E48Z E49Z E50Z E51Z E52Z E53Z E54Z E55Z E56Z E57Z E58Z E59Z E60Z E61Z"/>
    <route id="E1B_E62B.qBus.310.0" edges="E1B E2B E3B E4B E5B E6B E7B E8B E9B E10B E11B E12B E13B E14B E15B E16B E17B E18B E19B E20B E21B E22B E23B E24B E25B E26B E27B E28B E29B E30B E31B E32B E33B E34B E35B E36B E37B E38B E39B E40B E41B E42B E43B E44B E45B E46B E47B E48B E49B E50B E51B E52B E53B E54B E55B E56B E57B E58B E59B E60B E61B E62B"/>
    <route id="E1Z_E61Z.qBus.310.0" edges="E1Z E2Z E3Z E4Z E5Z E6Z E7Z E8Z E9Z E10Z E11Z E12Z E13Z E14Z E15Z E16Z E17Z E18Z E19Z E20Z E21Z E22Z E23Z E24Z E25Z E26Z E27Z E28Z E29Z E30Z E31Z E32Z E33Z E34Z E35Z E36Z E37Z E38Z E39Z E40Z E41Z E42Z E43Z E44Z E45Z E46Z E47Z E48Z E49Z E50Z E51Z E52Z E53Z E54Z E55Z E56Z E57Z E58Z E59Z E60Z E61Z"/>
    <route id="E1B_E62B.qBus.315.0" edges="E1B E2B E3B E4B E5B E6B E7B E8B E9B E10B E11B E12B E13B E14B E15B E16B E17B E18B E19B E20B E21B E22B E23B E24B E25B E26B E27B E28B E29B E30B E31B E32B E33B E34B E35B E36B E37B E38B E39B E40B E41B E42B E43B E44B E45B E46B E47B E48B E49B E50B E51B E52B E53B E54B E55B E56B E57B E58B E59B E60B E61B E62B"/>
    <route id="E1Z_E61Z.qBus.315.0" edges="E1Z E2Z E3Z E4Z E5Z E6Z E7Z E8Z E9Z E10Z E11Z E12Z E13Z E14Z E15Z E16Z E17Z E18Z E19Z E20Z E21Z E22Z E23Z E24Z E25Z E26Z E27Z E28Z E29Z E30Z E31Z E32Z E33Z E34Z E35Z E36Z E37Z E38Z E39Z E40Z E41Z E42Z E43Z E44Z E45Z E46Z E47Z E48Z E49Z E50Z E51Z E52Z E53Z E54Z E55Z E56Z E57Z E58Z E59Z E60Z E61Z"/>
    <route id="E17Bin_E23Bout3.qBus.320.0" edges="E17Bin ELin1 E17Bin3 E17Bin2 E17Bin2.1 E17Bin1 E17B E18B E19B E20B E21B E22B E23B E23Bout1 E23Bout2 E23Bout3"/>
    <route id="E1B_E62B.qBus.320.0" edges="E1B E2B E3B E4B E5B E6B E7B E8B E9B E10B E11B E12B E13B E14B E15B E16B E17B E18B E19B E20B E21B E22B E23B E24B E25B E26B E27B E28B E29B E30B E31B E32B E33B E34B E35B E36B E37B E38B E39B E40B E41B E42B E43B E44B E45B E46B E47B E48B E49B E50B E51B E52B E53B E54B E55B E56B E57B E58B E59B E60B E61B E62B"/>
    <route id="E1Z_E61Z.qBus.320.0" edges="E1Z E2Z E3Z E4Z E5Z E6Z E7Z E8Z E9Z E10Z E11Z E12Z E13Z E14Z E15Z E16Z E17Z E18Z E19Z E20Z E21Z E22Z E23Z E24Z E25Z E26Z E27Z E28Z E29Z E30Z E31Z E32Z E33Z E34Z E35Z E36Z E37Z E38Z E39Z E40Z E41Z E42Z E43Z E44Z E45Z E46Z E47Z E48Z E49Z E50Z E51Z E52Z E53Z E54Z E55Z E56Z E57Z E58Z E59Z E60Z E61Z"/>
    <route id="E17Bin_E23Bout3.qBus.325.0" edges="E17Bin ELin1 E17Bin3 E17Bin2 E17Bin2.1 E17Bin1 E17B E18B E19B E20B E21B E22B E23B E23Bout1 E23Bout2 E23Bout3"/>
    <route id="E1B_E59Bout3.qBus.325.0" edges="E1B E2B E3B E4B E5B E6B E7B E8B E9B E10B E11B E12B E13B E14B E15B E16B E17B E18B E19B E20B E21B E22B E23B E24B E25B E26B E27B E28B E29B E30B E31B E32B E33B E34B E35B E36B E37B E38B E39B E40B E41B E42B E43B E44B E45B E46B E47B E48B E49B E50B E51B E52B E53B E54B E55B E56B E57B E58B E59B E59Bout1 E59Bout2 E59Bout3"/>
    <route id="E1Z_E1Zout3.qBus.325.0" edges="E1Z E1Zout1 E1Zout2 E1Zout3"/>
    <route id="E5Zin2_E61Z.qBus.325.0" edges="E5Zin2 E5Zin1 E5Zin1.0 E5Z E6Z E7Z E8Z E9Z E10Z E11Z E12Z E13Z E14Z E15Z E16Z E17Z E18Z E19Z E20Z E21Z E22Z E23Z E24Z E25Z E26Z E27Z E28Z E29Z E30Z E31Z E32Z E33Z E34Z E35Z E36Z E37Z E38Z E39Z E40Z E41Z E42Z E43Z E44Z E45Z E46Z E47Z E48Z E49Z E50Z E51Z E52Z E53Z E54Z E55Z E56Z E57Z E58Z E59Z E60Z E61Z"/>
    <route id="E62Bin2_E62B.qBus.325.0" edges="E62Bin2 E62Bin1 E62Bin1.0 E62B"/>
    <route id="E1B_E62B.qBus.330.0" edges="E1B E2B E3B E4B E5B E6B E7B E8B E9B E10B E11B E12B E13B E14B E15B E16B E17B E18B E19B E20B E21B E22B E23B E24B E25B E26B E27B E28B E29B E30B E31B E32B E33B E34B E35B E36B E37B E38B E39B E40B E41B E42B E43B E44B E45B E46B E47B E48B E49B E50B E51B E52B E53B E54B E55B E56B E57B E58B E59B E60B E61B E62B"/>
    <route id="E1Z_E61Z.qBus.330.0" edges="E1Z E2Z E3Z E4Z E5Z E6Z E7Z E8Z E9Z E10Z E11Z E12Z E13Z E14Z E15Z E16Z E17Z E18Z E19Z E20Z E21Z E22Z E23Z E24Z E25Z E26Z E27Z E28Z E29Z E30Z E31Z E32Z E33Z E34Z E35Z E36Z E37Z E38Z E39Z E40Z E41Z E42Z E43Z E44Z E45Z E46Z E47Z E48Z E49Z E50Z E51Z E52Z E53Z E54Z E55Z E56Z E57Z E58Z E59Z E60Z E61Z"/>
    <route id="E1B_E62B.qBus.335.0" edges="E1B E2B E3B E4B E5B E6B E7B E8B E9B E10B E11B E12B E13B E14B E15B E16B E17B E18B E19B E20B E21B E22B E23B E24B E25B E26B E27B E28B E29B E30B E31B E32B E33B E34B E35B E36B E37B E38B E39B E40B E41B E42B E43B E44B E45B E46B E47B E48B E49B E50B E51B E52B E53B E54B E55B E56B E57B E58B E59B E60B E61B E62B"/>
    <route id="E1Z_E61Z.qBus.335.0" edges="E1Z E2Z E3Z E4Z E5Z E6Z E7Z E8Z E9Z E10Z E11Z E12Z E13Z E14Z E15Z E16Z E17Z E18Z E19Z E20Z E21Z E22Z E23Z E24Z E25Z E26Z E27Z E28Z E29Z E30Z E31Z E32Z E33Z E34Z E35Z E36Z E37Z E38Z E39Z E40Z E41Z E42Z E43Z E44Z E45Z E46Z E47Z E48Z E49Z E50Z E51Z E52Z E53Z E54Z E55Z E56Z E57Z E58Z E59Z E60Z E61Z"/>
    <route id="E1B_E59Bout3.qBus.340.0" edges="E1B E2B E3B E4B E5B E6B E7B E8B E9B E10B E11B E12B E13B E14B E15B E16B E17B E18B E19B E20B E21B E22B E23B E24B E25B E26B E27B E28B E29B E30B E31B E32B E33B E34B E35B E36B E37B E38B E39B E40B E41B E42B E43B E44B E45B E46B E47B E48B E49B E50B E51B E52B E53B E54B E55B E56B E57B E58B E59B E59Bout1 E59Bout2 E59Bout3"/>
    <route id="E1Z_E1Zout3.qBus.340.0" edges="E1Z E1Zout1 E1Zout2 E1Zout3"/>
    <route id="E5Zin2_E61Z.qBus.340.0" edges="E5Zin2 E5Zin1 E5Zin1.0 E5Z E6Z E7Z E8Z E9Z E10Z E11Z E12Z E13Z E14Z E15Z E16Z E17Z E18Z E19Z E20Z E21Z E22Z E23Z E24Z E25Z E26Z E27Z E28Z E29Z E30Z E31Z E32Z E33Z E34Z E35Z E36Z E37Z E38Z E39Z E40Z E41Z E42Z E43Z E44Z E45Z E46Z E47Z E48Z E49Z E50Z E51Z E52Z E53Z E54Z E55Z E56Z E57Z E58Z E59Z E60Z E61Z"/>
    <route id="E62Bin2_E62B.qBus.340.0" edges="E62Bin2 E62Bin1 E62Bin1.0 E62B"/>
    <route id="E1B_E62B.qBus.345.0" edges="E1B E2B E3B E4B E5B E6B E7B E8B E9B E10B E11B E12B E13B E14B E15B E16B E17B E18B E19B E20B E21B E22B E23B E24B E25B E26B E27B E28B E29B E30B E31B E32B E33B E34B E35B E36B E37B E38B E39B E40B E41B E42B E43B E44B E45B E46B E47B E48B E49B E50B E51B E52B E53B E54B E55B E56B E57B E58B E59B E60B E61B E62B"/>
    <route id="E1Z_E61Z.qBus.345.0" edges="E1Z E2Z E3Z E4Z E5Z E6Z E7Z E8Z E9Z E10Z E11Z E12Z E13Z E14Z E15Z E16Z E17Z E18Z E19Z E20Z E21Z E22Z E23Z E24Z E25Z E26Z E27Z E28Z E29Z E30Z E31Z E32Z E33Z E34Z E35Z E36Z E37Z E38Z E39Z E40Z E41Z E42Z E43Z E44Z E45Z E46Z E47Z E48Z E49Z E50Z E51Z E52Z E53Z E54Z E55Z E56Z E57Z E58Z E59Z E60Z E61Z"/>
    <route id="E1B_E62B.qBus.350.0" edges="E1B E2B E3B E4B E5B E6B E7B E8B E9B E10B E11B E12B E13B E14B E15B E16B E17B E18B E19B E20B E21B E22B E23B E24B E25B E26B E27B E28B E29B E30B E31B E32B E33B E34B E35B E36B E37B E38B E39B E40B E41B E42B E43B E44B E45B E46B E47B E48B E49B E50B E51B E52B E53B E54B E55B E56B E57B E58B E59B E60B E61B E62B"/>
    <route id="E1Z_E61Z.qBus.350.0" edges="E1Z E2Z E3Z E4Z E5Z E6Z E7Z E8Z E9Z E10Z E11Z E12Z E13Z E14Z E15Z E16Z E17Z E18Z E19Z E20Z E21Z E22Z E23Z E24Z E25Z E26Z E27Z E28Z E29Z E30Z E31Z E32Z E33Z E34Z E35Z E36Z E37Z E38Z E39Z E40Z E41Z E42Z E43Z E44Z E45Z E46Z E47Z E48Z E49Z E50Z E51Z E52Z E53Z E54Z E55Z E56Z E57Z E58Z E59Z E60Z E61Z"/>
    <route id="E1B_E59Bout3.qBus.355.0" edges="E1B E2B E3B E4B E5B E6B E7B E8B E9B E10B E11B E12B E13B E14B E15B E16B E17B E18B E19B E20B E21B E22B E23B E24B E25B E26B E27B E28B E29B E30B E31B E32B E33B E34B E35B E36B E37B E38B E39B E40B E41B E42B E43B E44B E45B E46B E47B E48B E49B E50B E51B E52B E53B E54B E55B E56B E57B E58B E59B E59Bout1 E59Bout2 E59Bout3"/>
    <route id="E1Z_E1Zout3.qBus.355.0" edges="E1Z E1Zout1 E1Zout2 E1Zout3"/>
    <route id="E5Zin2_E61Z.qBus.355.0" edges="E5Zin2 E5Zin1 E5Zin1.0 E5Z E6Z E7Z E8Z E9Z E10Z E11Z E12Z E13Z E14Z E15Z E16Z E17Z E18Z E19Z E20Z E21Z E22Z E23Z E24Z E25Z E26Z E27Z E28Z E29Z E30Z E31Z E32Z E33Z E34Z E35Z E36Z E37Z E38Z E39Z E40Z E41Z E42Z E43Z E44Z E45Z E46Z E47Z E48Z E49Z E50Z E51Z E52Z E53Z E54Z E55Z E56Z E57Z E58Z E59Z E60Z E61Z"/>
    <route id="E62Bin2_E62B.qBus.355.0" edges="E62Bin2 E62Bin1 E62Bin1.0 E62B"/>
    <route id="E1B_E62B.qBus.360.0" edges="E1B E2B E3B E4B E5B E6B E7B E8B E9B E10B E11B E12B E13B E14B E15B E16B E17B E18B E19B E20B E21B E22B E23B E24B E25B E26B E27B E28B E29B E30B E31B E32B E33B E34B E35B E36B E37B E38B E39B E40B E41B E42B E43B E44B E45B E46B E47B E48B E49B E50B E51B E52B E53B E54B E55B E56B E57B E58B E59B E60B E61B E62B"/>
    <route id="E1Z_E61Z.qBus.360.0" edges="E1Z E2Z E3Z E4Z E5Z E6Z E7Z E8Z E9Z E10Z E11Z E12Z E13Z E14Z E15Z E16Z E17Z E18Z E19Z E20Z E21Z E22Z E23Z E24Z E25Z E26Z E27Z E28Z E29Z E30Z E31Z E32Z E33Z E34Z E35Z E36Z E37Z E38Z E39Z E40Z E41Z E42Z E43Z E44Z E45Z E46Z E47Z E48Z E49Z E50Z E51Z E52Z E53Z E54Z E55Z E56Z E57Z E58Z E59Z E60Z E61Z"/>
    <route id="E62Bin2_E62B.qBus.360.0" edges="E62Bin2 E62Bin1 E62Bin1.0 E62B"/>
    <route id="E1B_E62B.qBus.365.0" edges="E1B E2B E3B E4B E5B E6B E7B E8B E9B E10B E11B E12B E13B E14B E15B E16B E17B E18B E19B E20B E21B E22B E23B E24B E25B E26B E27B E28B E29B E30B E31B E32B E33B E34B E35B E36B E37B E38B E39B E40B E41B E42B E43B E44B E45B E46B E47B E48B E49B E50B E51B E52B E53B E54B E55B E56B E57B E58B E59B E60B E61B E62B"/>
    <route id="E1Z_E61Z.qBus.365.0" edges="E1Z E2Z E3Z E4Z E5Z E6Z E7Z E8Z E9Z E10Z E11Z E12Z E13Z E14Z E15Z E16Z E17Z E18Z E19Z E20Z E21Z E22Z E23Z E24Z E25Z E26Z E27Z E28Z E29Z E30Z E31Z E32Z E33Z E34Z E35Z E36Z E37Z E38Z E39Z E40Z E41Z E42Z E43Z E44Z E45Z E46Z E47Z E48Z E49Z E50Z E51Z E52Z E53Z E54Z E55Z E56Z E57Z E58Z E59Z E60Z E61Z"/>
    <route id="E62Bin2_E62B.qBus.365.0" edges="E62Bin2 E62Bin1 E62Bin1.0 E62B"/>
    <route id="E1B_E59Bout3.qBus.370.0" edges="E1B E2B E3B E4B E5B E6B E7B E8B E9B E10B E11B E12B E13B E14B E15B E16B E17B E18B E19B E20B E21B E22B E23B E24B E25B E26B E27B E28B E29B E30B E31B E32B E33B E34B E35B E36B E37B E38B E39B E40B E41B E42B E43B E44B E45B E46B E47B E48B E49B E50B E51B E52B E53B E54B E55B E56B E57B E58B E59B E59Bout1 E59Bout2 E59Bout3"/>
    <route id="E1Z_E1Zout3.qBus.370.0" edges="E1Z E1Zout1 E1Zout2 E1Zout3"/>
    <route id="E5Zin2_E61Z.qBus.370.0" edges="E5Zin2 E5Zin1 E5Zin1.0 E5Z E6Z E7Z E8Z E9Z E10Z E11Z E12Z E13Z E14Z E15Z E16Z E17Z E18Z E19Z E20Z E21Z E22Z E23Z E24Z E25Z E26Z E27Z E28Z E29Z E30Z E31Z E32Z E33Z E34Z E35Z E36Z E37Z E38Z E39Z E40Z E41Z E42Z E43Z E44Z E45Z E46Z E47Z E48Z E49Z E50Z E51Z E52Z E53Z E54Z E55Z E56Z E57Z E58Z E59Z E60Z E61Z"/>
    <route id="E62Bin2_E62B.qBus.370.0" edges="E62Bin2 E62Bin1 E62Bin1.0 E62B"/>
    <route id="E1B_E62B.qBus.375.0" edges="E1B E2B E3B E4B E5B E6B E7B E8B E9B E10B E11B E12B E13B E14B E15B E16B E17B E18B E19B E20B E21B E22B E23B E24B E25B E26B E27B E28B E29B E30B E31B E32B E33B E34B E35B E36B E37B E38B E39B E40B E41B E42B E43B E44B E45B E46B E47B E48B E49B E50B E51B E52B E53B E54B E55B E56B E57B E58B E59B E60B E61B E62B"/>
    <route id="E1Z_E61Z.qBus.375.0" edges="E1Z E2Z E3Z E4Z E5Z E6Z E7Z E8Z E9Z E10Z E11Z E12Z E13Z E14Z E15Z E16Z E17Z E18Z E19Z E20Z E21Z E22Z E23Z E24Z E25Z E26Z E27Z E28Z E29Z E30Z E31Z E32Z E33Z E34Z E35Z E36Z E37Z E38Z E39Z E40Z E41Z E42Z E43Z E44Z E45Z E46Z E47Z E48Z E49Z E50Z E51Z E52Z E53Z E54Z E55Z E56Z E57Z E58Z E59Z E60Z E61Z"/>
    <route id="E62Bin2_E62B.qBus.375.0" edges="E62Bin2 E62Bin1 E62Bin1.0 E62B"/>
    <route id="E1B_E62B.qBus.380.0" edges="E1B E2B E3B E4B E5B E6B E7B E8B E9B E10B E11B E12B E13B E14B E15B E16B E17B E18B E19B E20B E21B E22B E23B E24B E25B E26B E27B E28B E29B E30B E31B E32B E33B E34B E35B E36B E37B E38B E39B E40B E41B E42B E43B E44B E45B E46B E47B E48B E49B E50B E51B E52B E53B E54B E55B E56B E57B E58B E59B E60B E61B E62B"/>
    <route id="E1Z_E61Z.qBus.380.0" edges="E1Z E2Z E3Z E4Z E5Z E6Z E7Z E8Z E9Z E10Z E11Z E12Z E13Z E14Z E15Z E16Z E17Z E18Z E19Z E20Z E21Z E22Z E23Z E24Z E25Z E26Z E27Z E28Z E29Z E30Z E31Z E32Z E33Z E34Z E35Z E36Z E37Z E38Z E39Z E40Z E41Z E42Z E43Z E44Z E45Z E46Z E47Z E48Z E49Z E50Z E51Z E52Z E53Z E54Z E55Z E56Z E57Z E58Z E59Z E60Z E61Z"/>
    <route id="E62Bin2_E62B.qBus.380.0" edges="E62Bin2 E62Bin1 E62Bin1.0 E62B"/>
    <route id="E1B_E59Bout3.qBus.385.0" edges="E1B E2B E3B E4B E5B E6B E7B E8B E9B E10B E11B E12B E13B E14B E15B E16B E17B E18B E19B E20B E21B E22B E23B E24B E25B E26B E27B E28B E29B E30B E31B E32B E33B E34B E35B E36B E37B E38B E39B E40B E41B E42B E43B E44B E45B E46B E47B E48B E49B E50B E51B E52B E53B E54B E55B E56B E57B E58B E59B E59Bout1 E59Bout2 E59Bout3"/>
    <route id="E1Z_E1Zout3.qBus.385.0" edges="E1Z E1Zout1 E1Zout2 E1Zout3"/>
    <route id="E5Zin2_E61Z.qBus.385.0" edges="E5Zin2 E5Zin1 E5Zin1.0 E5Z E6Z E7Z E8Z E9Z E10Z E11Z E12Z E13Z E14Z E15Z E16Z E17Z E18Z E19Z E20Z E21Z E22Z E23Z E24Z E25Z E26Z E27Z E28Z E29Z E30Z E31Z E32Z E33Z E34Z E35Z E36Z E37Z E38Z E39Z E40Z E41Z E42Z E43Z E44Z E45Z E46Z E47Z E48Z E49Z E50Z E51Z E52Z E53Z E54Z E55Z E56Z E57Z E58Z E59Z E60Z E61Z"/>
    <route id="E62Bin2_E62B.qBus.385.0" edges="E62Bin2 E62Bin1 E62Bin1.0 E62B"/>
    <route id="E1B_E62B.qBus.390.0" edges="E1B E2B E3B E4B E5B E6B E7B E8B E9B E10B E11B E12B E13B E14B E15B E16B E17B E18B E19B E20B E21B E22B E23B E24B E25B E26B E27B E28B E29B E30B E31B E32B E33B E34B E35B E36B E37B E38B E39B E40B E41B E42B E43B E44B E45B E46B E47B E48B E49B E50B E51B E52B E53B E54B E55B E56B E57B E58B E59B E60B E61B E62B"/>
    <route id="E1Z_E61Z.qBus.390.0" edges="E1Z E2Z E3Z E4Z E5Z E6Z E7Z E8Z E9Z E10Z E11Z E12Z E13Z E14Z E15Z E16Z E17Z E18Z E19Z E20Z E21Z E22Z E23Z E24Z E25Z E26Z E27Z E28Z E29Z E30Z E31Z E32Z E33Z E34Z E35Z E36Z E37Z E38Z E39Z E40Z E41Z E42Z E43Z E44Z E45Z E46Z E47Z E48Z E49Z E50Z E51Z E52Z E53Z E54Z E55Z E56Z E57Z E58Z E59Z E60Z E61Z"/>
    <route id="E62Bin2_E62B.qBus.390.0" edges="E62Bin2 E62Bin1 E62Bin1.0 E62B"/>
    <route id="E1B_E62B.qBus.395.0" edges="E1B E2B E3B E4B E5B E6B E7B E8B E9B E10B E11B E12B E13B E14B E15B E16B E17B E18B E19B E20B E21B E22B E23B E24B E25B E26B E27B E28B E29B E30B E31B E32B E33B E34B E35B E36B E37B E38B E39B E40B E41B E42B E43B E44B E45B E46B E47B E48B E49B E50B E51B E52B E53B E54B E55B E56B E57B E58B E59B E60B E61B E62B"/>
    <route id="E1Z_E61Z.qBus.395.0" edges="E1Z E2Z E3Z E4Z E5Z E6Z E7Z E8Z E9Z E10Z E11Z E12Z E13Z E14Z E15Z E16Z E17Z E18Z E19Z E20Z E21Z E22Z E23Z E24Z E25Z E26Z E27Z E28Z E29Z E30Z E31Z E32Z E33Z E34Z E35Z E36Z E37Z E38Z E39Z E40Z E41Z E42Z E43Z E44Z E45Z E46Z E47Z E48Z E49Z E50Z E51Z E52Z E53Z E54Z E55Z E56Z E57Z E58Z E59Z E60Z E61Z"/>
    <route id="E62Bin2_E62B.qBus.395.0" edges="E62Bin2 E62Bin1 E62Bin1.0 E62B"/>
    <route id="E1B_E59Bout3.qBus.400.0" edges="E1B E2B E3B E4B E5B E6B E7B E8B E9B E10B E11B E12B E13B E14B E15B E16B E17B E18B E19B E20B E21B E22B E23B E24B E25B E26B E27B E28B E29B E30B E31B E32B E33B E34B E35B E36B E37B E38B E39B E40B E41B E42B E43B E44B E45B E46B E47B E48B E49B E50B E51B E52B E53B E54B E55B E56B E57B E58B E59B E59Bout1 E59Bout2 E59Bout3"/>
    <route id="E1Z_E1Zout3.qBus.400.0" edges="E1Z E1Zout1 E1Zout2 E1Zout3"/>
    <route id="E5Zin2_E61Z.qBus.400.0" edges="E5Zin2 E5Zin1 E5Zin1.0 E5Z E6Z E7Z E8Z E9Z E10Z E11Z E12Z E13Z E14Z E15Z E16Z E17Z E18Z E19Z E20Z E21Z E22Z E23Z E24Z E25Z E26Z E27Z E28Z E29Z E30Z E31Z E32Z E33Z E34Z E35Z E36Z E37Z E38Z E39Z E40Z E41Z E42Z E43Z E44Z E45Z E46Z E47Z E48Z E49Z E50Z E51Z E52Z E53Z E54Z E55Z E56Z E57Z E58Z E59Z E60Z E61Z"/>
    <route id="E62Bin2_E62B.qBus.400.0" edges="E62Bin2 E62Bin1 E62Bin1.0 E62B"/>
    <route id="E1B_E62B.qBus.405.0" edges="E1B E2B E3B E4B E5B E6B E7B E8B E9B E10B E11B E12B E13B E14B E15B E16B E17B E18B E19B E20B E21B E22B E23B E24B E25B E26B E27B E28B E29B E30B E31B E32B E33B E34B E35B E36B E37B E38B E39B E40B E41B E42B E43B E44B E45B E46B E47B E48B E49B E50B E51B E52B E53B E54B E55B E56B E57B E58B E59B E60B E61B E62B"/>
    <route id="E1Z_E61Z.qBus.405.0" edges="E1Z E2Z E3Z E4Z E5Z E6Z E7Z E8Z E9Z E10Z E11Z E12Z E13Z E14Z E15Z E16Z E17Z E18Z E19Z E20Z E21Z E22Z E23Z E24Z E25Z E26Z E27Z E28Z E29Z E30Z E31Z E32Z E33Z E34Z E35Z E36Z E37Z E38Z E39Z E40Z E41Z E42Z E43Z E44Z E45Z E46Z E47Z E48Z E49Z E50Z E51Z E52Z E53Z E54Z E55Z E56Z E57Z E58Z E59Z E60Z E61Z"/>
    <route id="E62Bin2_E62B.qBus.405.0" edges="E62Bin2 E62Bin1 E62Bin1.0 E62B"/>
    <route id="E1B_E62B.qBus.410.0" edges="E1B E2B E3B E4B E5B E6B E7B E8B E9B E10B E11B E12B E13B E14B E15B E16B E17B E18B E19B E20B E21B E22B E23B E24B E25B E26B E27B E28B E29B E30B E31B E32B E33B E34B E35B E36B E37B E38B E39B E40B E41B E42B E43B E44B E45B E46B E47B E48B E49B E50B E51B E52B E53B E54B E55B E56B E57B E58B E59B E60B E61B E62B"/>
    <route id="E1Z_E61Z.qBus.410.0" edges="E1Z E2Z E3Z E4Z E5Z E6Z E7Z E8Z E9Z E10Z E11Z E12Z E13Z E14Z E15Z E16Z E17Z E18Z E19Z E20Z E21Z E22Z E23Z E24Z E25Z E26Z E27Z E28Z E29Z E30Z E31Z E32Z E33Z E34Z E35Z E36Z E37Z E38Z E39Z E40Z E41Z E42Z E43Z E44Z E45Z E46Z E47Z E48Z E49Z E50Z E51Z E52Z E53Z E54Z E55Z E56Z E57Z E58Z E59Z E60Z E61Z"/>
    <route id="E62Bin2_E62B.qBus.410.0" edges="E62Bin2 E62Bin1 E62Bin1.0 E62B"/>
    <route id="E1B_E59Bout3.qBus.415.0" edges="E1B E2B E3B E4B E5B E6B E7B E8B E9B E10B E11B E12B E13B E14B E15B E16B E17B E18B E19B E20B E21B E22B E23B E24B E25B E26B E27B E28B E29B E30B E31B E32B E33B E34B E35B E36B E37B E38B E39B E40B E41B E42B E43B E44B E45B E46B E47B E48B E49B E50B E51B E52B E53B E54B E55B E56B E57B E58B E59B E59Bout1 E59Bout2 E59Bout3"/>
    <route id="E1Z_E1Zout3.qBus.415.0" edges="E1Z E1Zout1 E1Zout2 E1Zout3"/>
    <route id="E5Zin2_E61Z.qBus.415.0" edges="E5Zin2 E5Zin1 E5Zin1.0 E5Z E6Z E7Z E8Z E9Z E10Z E11Z E12Z E13Z E14Z E15Z E16Z E17Z E18Z E19Z E20Z E21Z E22Z E23Z E24Z E25Z E26Z E27Z E28Z E29Z E30Z E31Z E32Z E33Z E34Z E35Z E36Z E37Z E38Z E39Z E40Z E41Z E42Z E43Z E44Z E45Z E46Z E47Z E48Z E49Z E50Z E51Z E52Z E53Z E54Z E55Z E56Z E57Z E58Z E59Z E60Z E61Z"/>
    <route id="E62Bin2_E62B.qBus.415.0" edges="E62Bin2 E62Bin1 E62Bin1.0 E62B"/>
    <route id="E1B_E62B.qBus.420.0" edges="E1B E2B E3B E4B E5B E6B E7B E8B E9B E10B E11B E12B E13B E14B E15B E16B E17B E18B E19B E20B E21B E22B E23B E24B E25B E26B E27B E28B E29B E30B E31B E32B E33B E34B E35B E36B E37B E38B E39B E40B E41B E42B E43B E44B E45B E46B E47B E48B E49B E50B E51B E52B E53B E54B E55B E56B E57B E58B E59B E60B E61B E62B"/>
    <route id="E1Z_E61Z.qBus.420.0" edges="E1Z E2Z E3Z E4Z E5Z E6Z E7Z E8Z E9Z E10Z E11Z E12Z E13Z E14Z E15Z E16Z E17Z E18Z E19Z E20Z E21Z E22Z E23Z E24Z E25Z E26Z E27Z E28Z E29Z E30Z E31Z E32Z E33Z E34Z E35Z E36Z E37Z E38Z E39Z E40Z E41Z E42Z E43Z E44Z E45Z E46Z E47Z E48Z E49Z E50Z E51Z E52Z E53Z E54Z E55Z E56Z E57Z E58Z E59Z E60Z E61Z"/>
    <route id="E1B_E62B.qBus.425.0" edges="E1B E2B E3B E4B E5B E6B E7B E8B E9B E10B E11B E12B E13B E14B E15B E16B E17B E18B E19B E20B E21B E22B E23B E24B E25B E26B E27B E28B E29B E30B E31B E32B E33B E34B E35B E36B E37B E38B E39B E40B E41B E42B E43B E44B E45B E46B E47B E48B E49B E50B E51B E52B E53B E54B E55B E56B E57B E58B E59B E60B E61B E62B"/>
    <route id="E1Z_E61Z.qBus.425.0" edges="E1Z E2Z E3Z E4Z E5Z E6Z E7Z E8Z E9Z E10Z E11Z E12Z E13Z E14Z E15Z E16Z E17Z E18Z E19Z E20Z E21Z E22Z E23Z E24Z E25Z E26Z E27Z E28Z E29Z E30Z E31Z E32Z E33Z E34Z E35Z E36Z E37Z E38Z E39Z E40Z E41Z E42Z E43Z E44Z E45Z E46Z E47Z E48Z E49Z E50Z E51Z E52Z E53Z E54Z E55Z E56Z E57Z E58Z E59Z E60Z E61Z"/>
    <route id="E1B_E59Bout3.qBus.430.0" edges="E1B E2B E3B E4B E5B E6B E7B E8B E9B E10B E11B E12B E13B E14B E15B E16B E17B E18B E19B E20B E21B E22B E23B E24B E25B E26B E27B E28B E29B E30B E31B E32B E33B E34B E35B E36B E37B E38B E39B E40B E41B E42B E43B E44B E45B E46B E47B E48B E49B E50B E51B E52B E53B E54B E55B E56B E57B E58B E59B E59Bout1 E59Bout2 E59Bout3"/>
    <route id="E1Z_E1Zout3.qBus.430.0" edges="E1Z E1Zout1 E1Zout2 E1Zout3"/>
    <route id="E5Zin2_E61Z.qBus.430.0" edges="E5Zin2 E5Zin1 E5Zin1.0 E5Z E6Z E7Z E8Z E9Z E10Z E11Z E12Z E13Z E14Z E15Z E16Z E17Z E18Z E19Z E20Z E21Z E22Z E23Z E24Z E25Z E26Z E27Z E28Z E29Z E30Z E31Z E32Z E33Z E34Z E35Z E36Z E37Z E38Z E39Z E40Z E41Z E42Z E43Z E44Z E45Z E46Z E47Z E48Z E49Z E50Z E51Z E52Z E53Z E54Z E55Z E56Z E57Z E58Z E59Z E60Z E61Z"/>
    <route id="E62Bin2_E62B.qBus.430.0" edges="E62Bin2 E62Bin1 E62Bin1.0 E62B"/>
    <route id="E1B_E62B.qBus.435.0" edges="E1B E2B E3B E4B E5B E6B E7B E8B E9B E10B E11B E12B E13B E14B E15B E16B E17B E18B E19B E20B E21B E22B E23B E24B E25B E26B E27B E28B E29B E30B E31B E32B E33B E34B E35B E36B E37B E38B E39B E40B E41B E42B E43B E44B E45B E46B E47B E48B E49B E50B E51B E52B E53B E54B E55B E56B E57B E58B E59B E60B E61B E62B"/>
    <route id="E1Z_E61Z.qBus.435.0" edges="E1Z E2Z E3Z E4Z E5Z E6Z E7Z E8Z E9Z E10Z E11Z E12Z E13Z E14Z E15Z E16Z E17Z E18Z E19Z E20Z E21Z E22Z E23Z E24Z E25Z E26Z E27Z E28Z E29Z E30Z E31Z E32Z E33Z E34Z E35Z E36Z E37Z E38Z E39Z E40Z E41Z E42Z E43Z E44Z E45Z E46Z E47Z E48Z E49Z E50Z E51Z E52Z E53Z E54Z E55Z E56Z E57Z E58Z E59Z E60Z E61Z"/>
    <route id="E1B_E62B.qBus.440.0" edges="E1B E2B E3B E4B E5B E6B E7B E8B E9B E10B E11B E12B E13B E14B E15B E16B E17B E18B E19B E20B E21B E22B E23B E24B E25B E26B E27B E28B E29B E30B E31B E32B E33B E34B E35B E36B E37B E38B E39B E40B E41B E42B E43B E44B E45B E46B E47B E48B E49B E50B E51B E52B E53B E54B E55B E56B E57B E58B E59B E60B E61B E62B"/>
    <route id="E1Z_E61Z.qBus.440.0" edges="E1Z E2Z E3Z E4Z E5Z E6Z E7Z E8Z E9Z E10Z E11Z E12Z E13Z E14Z E15Z E16Z E17Z E18Z E19Z E20Z E21Z E22Z E23Z E24Z E25Z E26Z E27Z E28Z E29Z E30Z E31Z E32Z E33Z E34Z E35Z E36Z E37Z E38Z E39Z E40Z E41Z E42Z E43Z E44Z E45Z E46Z E47Z E48Z E49Z E50Z E51Z E52Z E53Z E54Z E55Z E56Z E57Z E58Z E59Z E60Z E61Z"/>
    <route id="E1B_E59Bout3.qBus.445.0" edges="E1B E2B E3B E4B E5B E6B E7B E8B E9B E10B E11B E12B E13B E14B E15B E16B E17B E18B E19B E20B E21B E22B E23B E24B E25B E26B E27B E28B E29B E30B E31B E32B E33B E34B E35B E36B E37B E38B E39B E40B E41B E42B E43B E44B E45B E46B E47B E48B E49B E50B E51B E52B E53B E54B E55B E56B E57B E58B E59B E59Bout1 E59Bout2 E59Bout3"/>
    <route id="E1Z_E1Zout3.qBus.445.0" edges="E1Z E1Zout1 E1Zout2 E1Zout3"/>
    <route id="E5Zin2_E61Z.qBus.445.0" edges="E5Zin2 E5Zin1 E5Zin1.0 E5Z E6Z E7Z E8Z E9Z E10Z E11Z E12Z E13Z E14Z E15Z E16Z E17Z E18Z E19Z E20Z E21Z E22Z E23Z E24Z E25Z E26Z E27Z E28Z E29Z E30Z E31Z E32Z E33Z E34Z E35Z E36Z E37Z E38Z E39Z E40Z E41Z E42Z E43Z E44Z E45Z E46Z E47Z E48Z E49Z E50Z E51Z E52Z E53Z E54Z E55Z E56Z E57Z E58Z E59Z E60Z E61Z"/>
    <route id="E62Bin2_E62B.qBus.445.0" edges="E62Bin2 E62Bin1 E62Bin1.0 E62B"/>
    <route id="E1B_E62B.qBus.450.0" edges="E1B E2B E3B E4B E5B E6B E7B E8B E9B E10B E11B E12B E13B E14B E15B E16B E17B E18B E19B E20B E21B E22B E23B E24B E25B E26B E27B E28B E29B E30B E31B E32B E33B E34B E35B E36B E37B E38B E39B E40B E41B E42B E43B E44B E45B E46B E47B E48B E49B E50B E51B E52B E53B E54B E55B E56B E57B E58B E59B E60B E61B E62B"/>
    <route id="E1Z_E61Z.qBus.450.0" edges="E1Z E2Z E3Z E4Z E5Z E6Z E7Z E8Z E9Z E10Z E11Z E12Z E13Z E14Z E15Z E16Z E17Z E18Z E19Z E20Z E21Z E22Z E23Z E24Z E25Z E26Z E27Z E28Z E29Z E30Z E31Z E32Z E33Z E34Z E35Z E36Z E37Z E38Z E39Z E40Z E41Z E42Z E43Z E44Z E45Z E46Z E47Z E48Z E49Z E50Z E51Z E52Z E53Z E54Z E55Z E56Z E57Z E58Z E59Z E60Z E61Z"/>
    <route id="E1B_E62B.qBus.455.0" edges="E1B E2B E3B E4B E5B E6B E7B E8B E9B E10B E11B E12B E13B E14B E15B E16B E17B E18B E19B E20B E21B E22B E23B E24B E25B E26B E27B E28B E29B E30B E31B E32B E33B E34B E35B E36B E37B E38B E39B E40B E41B E42B E43B E44B E45B E46B E47B E48B E49B E50B E51B E52B E53B E54B E55B E56B E57B E58B E59B E60B E61B E62B"/>
    <route id="E1Z_E61Z.qBus.455.0" edges="E1Z E2Z E3Z E4Z E5Z E6Z E7Z E8Z E9Z E10Z E11Z E12Z E13Z E14Z E15Z E16Z E17Z E18Z E19Z E20Z E21Z E22Z E23Z E24Z E25Z E26Z E27Z E28Z E29Z E30Z E31Z E32Z E33Z E34Z E35Z E36Z E37Z E38Z E39Z E40Z E41Z E42Z E43Z E44Z E45Z E46Z E47Z E48Z E49Z E50Z E51Z E52Z E53Z E54Z E55Z E56Z E57Z E58Z E59Z E60Z E61Z"/>
    <route id="E1B_E59Bout3.qBus.460.0" edges="E1B E2B E3B E4B E5B E6B E7B E8B E9B E10B E11B E12B E13B E14B E15B E16B E17B E18B E19B E20B E21B E22B E23B E24B E25B E26B E27B E28B E29B E30B E31B E32B E33B E34B E35B E36B E37B E38B E39B E40B E41B E42B E43B E44B E45B E46B E47B E48B E49B E50B E51B E52B E53B E54B E55B E56B E57B E58B E59B E59Bout1 E59Bout2 E59Bout3"/>
    <route id="E1Z_E1Zout3.qBus.460.0" edges="E1Z E1Zout1 E1Zout2 E1Zout3"/>
    <route id="E5Zin2_E61Z.qBus.460.0" edges="E5Zin2 E5Zin1 E5Zin1.0 E5Z E6Z E7Z E8Z E9Z E10Z E11Z E12Z E13Z E14Z E15Z E16Z E17Z E18Z E19Z E20Z E21Z E22Z E23Z E24Z E25Z E26Z E27Z E28Z E29Z E30Z E31Z E32Z E33Z E34Z E35Z E36Z E37Z E38Z E39Z E40Z E41Z E42Z E43Z E44Z E45Z E46Z E47Z E48Z E49Z E50Z E51Z E52Z E53Z E54Z E55Z E56Z E57Z E58Z E59Z E60Z E61Z"/>
    <route id="E62Bin2_E62B.qBus.460.0" edges="E62Bin2 E62Bin1 E62Bin1.0 E62B"/>
    <route id="E1B_E62B.qBus.465.0" edges="E1B E2B E3B E4B E5B E6B E7B E8B E9B E10B E11B E12B E13B E14B E15B E16B E17B E18B E19B E20B E21B E22B E23B E24B E25B E26B E27B E28B E29B E30B E31B E32B E33B E34B E35B E36B E37B E38B E39B E40B E41B E42B E43B E44B E45B E46B E47B E48B E49B E50B E51B E52B E53B E54B E55B E56B E57B E58B E59B E60B E61B E62B"/>
    <route id="E1Z_E61Z.qBus.465.0" edges="E1Z E2Z E3Z E4Z E5Z E6Z E7Z E8Z E9Z E10Z E11Z E12Z E13Z E14Z E15Z E16Z E17Z E18Z E19Z E20Z E21Z E22Z E23Z E24Z E25Z E26Z E27Z E28Z E29Z E30Z E31Z E32Z E33Z E34Z E35Z E36Z E37Z E38Z E39Z E40Z E41Z E42Z E43Z E44Z E45Z E46Z E47Z E48Z E49Z E50Z E51Z E52Z E53Z E54Z E55Z E56Z E57Z E58Z E59Z E60Z E61Z"/>
    <route id="E1B_E62B.qBus.470.0" edges="E1B E2B E3B E4B E5B E6B E7B E8B E9B E10B E11B E12B E13B E14B E15B E16B E17B E18B E19B E20B E21B E22B E23B E24B E25B E26B E27B E28B E29B E30B E31B E32B E33B E34B E35B E36B E37B E38B E39B E40B E41B E42B E43B E44B E45B E46B E47B E48B E49B E50B E51B E52B E53B E54B E55B E56B E57B E58B E59B E60B E61B E62B"/>
    <route id="E1Z_E61Z.qBus.470.0" edges="E1Z E2Z E3Z E4Z E5Z E6Z E7Z E8Z E9Z E10Z E11Z E12Z E13Z E14Z E15Z E16Z E17Z E18Z E19Z E20Z E21Z E22Z E23Z E24Z E25Z E26Z E27Z E28Z E29Z E30Z E31Z E32Z E33Z E34Z E35Z E36Z E37Z E38Z E39Z E40Z E41Z E42Z E43Z E44Z E45Z E46Z E47Z E48Z E49Z E50Z E51Z E52Z E53Z E54Z E55Z E56Z E57Z E58Z E59Z E60Z E61Z"/>
    <route id="E1B_E59Bout3.qBus.475.0" edges="E1B E2B E3B E4B E5B E6B E7B E8B E9B E10B E11B E12B E13B E14B E15B E16B E17B E18B E19B E20B E21B E22B E23B E24B E25B E26B E27B E28B E29B E30B E31B E32B E33B E34B E35B E36B E37B E38B E39B E40B E41B E42B E43B E44B E45B E46B E47B E48B E49B E50B E51B E52B E53B E54B E55B E56B E57B E58B E59B E59Bout1 E59Bout2 E59Bout3"/>
    <route id="E1Z_E1Zout3.qBus.475.0" edges="E1Z E1Zout1 E1Zout2 E1Zout3"/>
    <route id="E5Zin2_E61Z.qBus.475.0" edges="E5Zin2 E5Zin1 E5Zin1.0 E5Z E6Z E7Z E8Z E9Z E10Z E11Z E12Z E13Z E14Z E15Z E16Z E17Z E18Z E19Z E20Z E21Z E22Z E23Z E24Z E25Z E26Z E27Z E28Z E29Z E30Z E31Z E32Z E33Z E34Z E35Z E36Z E37Z E38Z E39Z E40Z E41Z E42Z E43Z E44Z E45Z E46Z E47Z E48Z E49Z E50Z E51Z E52Z E53Z E54Z E55Z E56Z E57Z E58Z E59Z E60Z E61Z"/>
    <route id="E62Bin2_E62B.qBus.475.0" edges="E62Bin2 E62Bin1 E62Bin1.0 E62B"/>