<?xml version="1.0" encoding="UTF-8"?>

<!-- generated on 2026-05-21T15:30:03.482169+01:00 by Eclipse SUMO netedit v1_25_0+0086-b1f02afa5bd
<neteditConfiguration xmlns:xsi="http://www.w3.org/2001/XMLSchema-instance" xsi:noNamespaceSchemaLocation="http://sumo.dlr.de/xsd/neteditConfiguration.xsd">

    <input>
        <sumocfg-file value="/Users/marcgloor/Desktop/ETH/Fächer/Bachelorarbeit/A1_RM/A1.sumocfg"/>
        <additional-files value="/Users/marcgloor/Desktop/ETH/Fächer/Bachelorarbeit/A1_RM/detSIM.add.xml,/Users/marcgloor/Desktop/ETH/Fächer/Bachelorarbeit/A1_RM/detRM.add.xml,/Users/marcgloor/Desktop/ETH/Fächer/Bachelorarbeit/A1_RM/detDFR.add.xml"/>
        <route-files value="/Users/marcgloor/Desktop/ETH/Fächer/Bachelorarbeit/A1_RM/vTypes1.rou.xml,/Users/marcgloor/Desktop/ETH/Fächer/Bachelorarbeit/A1_RM/FLOWbus.routes.xml,/Users/marcgloor/Desktop/ETH/Fächer/Bachelorarbeit/A1_RM/FLOWcar.routes.xml,/Users/marcgloor/Desktop/ETH/Fächer/Bachelorarbeit/A1_RM/FLOWdeliv.routes.xml,/Users/marcgloor/Desktop/ETH/Fächer/Bachelorarbeit/A1_RM/FLOWmotc.routes.xml,/Users/marcgloor/Desktop/ETH/Fächer/Bachelorarbeit/A1_RM/FLOWtruck.routes.xml,/Users/marcgloor/Desktop/ETH/Fächer/Bachelorarbeit/A1_RM/FLOWbus.emitters.xml,/Users/marcgloor/Desktop/ETH/Fächer/Bachelorarbeit/A1_RM/FLOWcar.emitters.xml,/Users/marcgloor/Desktop/ETH/Fächer/Bachelorarbeit/A1_RM/FLOWdeliv.emitters.xml,/Users/marcgloor/Desktop/ETH/Fächer/Bachelorarbeit/A1_RM/FLOWmotc.emitters.xml,/Users/marcgloor/Desktop/ETH/Fächer/Bachelorarbeit/A1_RM/FLOWtruck.emitters.xml"/>
        <sumo-net-file value="/Users/marcgloor/Desktop/ETH/Fächer/Bachelorarbeit/A1_RM/network.net.xml"/>
    </input>

    <output>
        <output-file value="/Users/marcgloor/Desktop/ETH/Fächer/Bachelorarbeit/A1_RM/test375.net.xml"/>
    </output>

    <processing>
        <geometry.min-radius.fix.railways value="false"/>
        <geometry.avoid-overlap value="false"/>
        <geometry.max-grade.fix value="false"/>
        <offset.disable-normalization value="true"/>
        <lefthand value="0"/>
    </processing>

    <junctions>
        <no-turnarounds value="true"/>
        <junctions.corner-detail value="5"/>
        <junctions.limit-turn-speed value="5.50"/>
        <rectangular-lane-cut value="0"/>
    </junctions>

    <pedestrian>
        <walkingareas value="0"/>
    </pedestrian>

</neteditConfiguration>
-->

<net version="1.20" junctionCornerDetail="5" limitTurnSpeed="5.50" avoidOverlap="0" xmlns:xsi="http://www.w3.org/2001/XMLSchema-instance" xsi:noNamespaceSchemaLocation="http://sumo.dlr.de/xsd/net_file.xsd">

    <location netOffset="0.00,0.00" convBoundary="-9371.87,-8572.39,14759.82,7059.14" origBoundary="-10000000000.00,-10000000000.00,10000000000.00,10000000000.00" projParameter="!"/>

    <edge id=":48_EE_Z_0" function="internal">
        <lane id=":48_EE_Z_0_0" index="0" speed="33.33" length="7.78" shape="-8551.66,-8025.47 -8556.73,-8031.29"/>
        <lane id=":48_EE_Z_0_1" index="1" speed="33.33" length="7.78" shape="-8549.21,-8027.53 -8554.36,-8033.44"/>
    </edge>
    <edge id=":48_EE_Z_2" function="internal">
        <lane id=":48_EE_Z_2_0" index="0" speed="33.33" length="8.02" shape="-8549.61,-8037.73 -8544.30,-8031.64"/>
        <lane id=":48_EE_Z_2_1" index="1" speed="33.33" length="8.02" shape="-8551.98,-8035.58 -8546.75,-8029.58"/>
    </edge>
    <edge id=":48_MA_B_0" function="internal">
        <lane id=":48_MA_B_0_0" index="0" speed="33.33" length="12.35" shape="-8693.69,-8173.86 -8696.37,-8176.60 -8698.35,-8178.57 -8700.26,-8180.27 -8702.75,-8182.24"/>
    </edge>
    <edge id=":48_MA_B_1" function="internal">
        <lane id=":48_MA_B_1_0" index="0" speed="33.33" length="8.15" shape="-8691.47,-8176.17 -8696.75,-8182.46"/>
        <lane id=":48_MA_B_1_1" index="1" speed="33.33" length="8.15" shape="-8689.25,-8178.48 -8694.44,-8184.67"/>
    </edge>
    <edge id=":48_MA_B_3" function="internal">
        <lane id=":48_MA_B_3_0" index="0" speed="33.33" length="8.10" shape="-8689.81,-8189.09 -8688.38,-8187.22 -8687.69,-8185.70 -8686.99,-8184.20 -8685.49,-8182.39"/>
        <lane id=":48_MA_B_3_1" index="1" speed="33.33" length="8.10" shape="-8692.13,-8186.88 -8690.66,-8184.98 -8689.96,-8183.44 -8689.23,-8181.92 -8687.71,-8180.09"/>
    </edge>
    <edge id=":48_ME_B_0" function="internal">
        <lane id=":48_ME_B_0_0" index="0" speed="33.33" length="18.96" shape="-9211.24,-8515.57 -9214.48,-8517.49 -9217.99,-8519.58 -9222.37,-8521.76 -9228.21,-8523.89"/>
    </edge>
    <edge id=":48_ME_B_1" function="internal">
        <lane id=":48_ME_B_1_0" index="0" speed="33.33" length="19.39" shape="-9209.66,-8519.00 -9227.27,-8526.95"/>
        <lane id=":48_ME_B_1_1" index="1" speed="33.33" length="19.39" shape="-9208.57,-8522.01 -9226.32,-8530.01"/>
    </edge>
    <edge id=":48_ME_B_3" function="internal">
        <lane id=":48_ME_B_3_0" index="0" speed="30.55" length="19.64" shape="-9223.49,-8539.18 -9217.40,-8536.93 -9212.75,-8534.72 -9208.95,-8532.87 -9205.37,-8531.68"/>
    </edge>
    <edge id=":48_ME_B_4" function="internal">
        <lane id=":48_ME_B_4_0" index="0" speed="33.33" length="19.73" shape="-9224.43,-8536.13 -9218.94,-8534.11 -9215.35,-8532.27 -9211.80,-8530.33 -9206.40,-8528.03"/>
        <lane id=":48_ME_B_4_1" index="1" speed="33.33" length="19.73" shape="-9225.38,-8533.07 -9219.92,-8531.07 -9216.37,-8529.23 -9212.85,-8527.30 -9207.49,-8525.02"/>
    </edge>
    <edge id=":48_ME_Z_0" function="internal">
        <lane id=":48_ME_Z_0_0" index="0" speed="33.33" length="7.96" shape="-8660.11,-8140.59 -8661.77,-8142.24 -8663.04,-8143.22 -8664.34,-8144.19 -8666.06,-8145.78"/>
        <lane id=":48_ME_Z_0_1" index="1" speed="33.33" length="7.96" shape="-8657.74,-8142.74 -8659.41,-8144.40 -8660.69,-8145.40 -8661.99,-8146.37 -8663.73,-8147.97"/>
        <lane id=":48_ME_Z_0_2" index="2" speed="33.33" length="7.96" shape="-8655.37,-8144.89 -8657.05,-8146.56 -8658.34,-8147.57 -8659.65,-8148.55 -8661.39,-8150.16"/>
    </edge>
    <edge id=":48_ME_Z_3" function="internal">
        <lane id=":48_ME_Z_3_0" index="0" speed="33.33" length="11.25" shape="-8655.27,-8160.12 -8653.57,-8157.55 -8652.17,-8155.71 -8650.57,-8153.87 -8648.26,-8151.34"/>
    </edge>
    <edge id=":48_ME_Z_4" function="internal">
        <lane id=":48_ME_Z_4_0" index="0" speed="33.33" length="8.08" shape="-8656.65,-8154.61 -8650.63,-8149.19"/>
        <lane id=":48_ME_Z_4_1" index="1" speed="33.33" length="8.08" shape="-8658.99,-8152.42 -8653.00,-8147.04"/>
    </edge>
    <edge id=":48_SA_B_0" function="internal">
        <lane id=":48_SA_B_0_0" index="0" speed="33.33" length="7.99" shape="-8599.39,-8078.43 -8604.75,-8084.36"/>
        <lane id=":48_SA_B_0_1" index="1" speed="33.33" length="7.99" shape="-8597.01,-8080.58 -8602.38,-8086.51"/>
    </edge>
    <edge id=":48_SA_B_2" function="internal">
        <lane id=":48_SA_B_2_0" index="0" speed="33.33" length="8.01" shape="-8595.27,-8092.96 -8589.89,-8087.02"/>
        <lane id=":48_SA_B_2_1" index="1" speed="33.33" length="8.01" shape="-8597.64,-8090.81 -8592.27,-8084.87"/>
        <lane id=":48_SA_B_2_2" index="2" speed="33.33" length="8.01" shape="-8600.01,-8088.66 -8594.64,-8082.73"/>
    </edge>
    <edge id=":49_EE_B_0" function="internal">
        <lane id=":49_EE_B_0_0" index="0" speed="33.33" length="8.02" shape="-704.30,-5130.07 -708.88,-5136.69"/>
        <lane id=":49_EE_B_0_1" index="1" speed="33.33" length="8.02" shape="-701.68,-5131.91 -706.23,-5138.49"/>
    </edge>
    <edge id=":49_EE_B_2" function="internal">
        <lane id=":49_EE_B_2_0" index="0" speed="33.33" length="7.93" shape="-700.94,-5142.09 -696.45,-5135.59"/>
        <lane id=":49_EE_B_2_1" index="1" speed="33.33" length="7.93" shape="-703.59,-5140.29 -699.07,-5133.75"/>
    </edge>
    <edge id=":49_MA_B_0" function="internal">
        <lane id=":49_MA_B_0_0" index="0" speed="22.22" length="8.42" shape="-445.37,-4725.87 -446.74,-4727.96 -447.78,-4729.32 -448.99,-4730.54 -450.86,-4732.19"/>
    </edge>
    <edge id=":49_MA_B_1" function="internal">
        <lane id=":49_MA_B_1_0" index="0" speed="33.33" length="8.45" shape="-442.69,-4727.61 -447.28,-4734.70"/>
        <lane id=":49_MA_B_1_1" index="1" speed="33.33" length="8.45" shape="-440.00,-4729.35 -444.59,-4736.44"/>
    </edge>
    <edge id=":49_MA_B_3" function="internal">
        <lane id=":49_MA_B_3_0" index="0" speed="33.33" length="8.45" shape="-439.22,-4739.92 -434.63,-4732.83"/>
        <lane id=":49_MA_B_3_1" index="1" speed="33.33" length="8.45" shape="-441.90,-4738.18 -437.31,-4731.09"/>
    </edge>
    <edge id=":49_MA_Z_0" function="internal">
        <lane id=":49_MA_Z_0_0" index="0" speed="33.33" length="8.80" shape="-498.52,-4813.85 -503.35,-4821.22"/>
        <lane id=":49_MA_Z_0_1" index="1" speed="33.33" length="8.80" shape="-495.83,-4815.57 -500.65,-4822.93"/>
    </edge>
    <edge id=":49_MA_Z_2" function="internal">
        <lane id=":49_MA_Z_2_0" index="0" speed="22.22" length="8.44" shape="-492.54,-4828.08 -491.18,-4825.98 -490.15,-4824.60 -488.93,-4823.38 -487.05,-4821.74"/>
    </edge>
    <edge id=":49_MA_Z_3" function="internal">
        <lane id=":49_MA_Z_3_0" index="0" speed="33.33" length="8.78" shape="-495.24,-4826.36 -490.44,-4819.02"/>
        <lane id=":49_MA_Z_3_1" index="1" speed="33.33" length="8.78" shape="-497.94,-4824.65 -493.13,-4817.30"/>
    </edge>
    <edge id=":49_ME_Z_0" function="internal">
        <lane id=":49_ME_Z_0_0" index="0" speed="33.33" length="7.97" shape="-361.99,-4596.79 -366.44,-4603.37"/>
        <lane id=":49_ME_Z_0_1" index="1" speed="33.33" length="7.97" shape="-359.28,-4598.50 -363.75,-4605.10"/>
        <lane id=":49_ME_Z_0_2" index="2" speed="33.33" length="7.97" shape="-356.58,-4600.21 -361.06,-4606.83"/>
    </edge>
    <edge id=":49_ME_Z_3" function="internal">
        <lane id=":49_ME_Z_3_0" index="0" speed="33.33" length="9.12" shape="-352.56,-4613.44 -351.59,-4610.91 -350.82,-4609.23 -349.90,-4607.62 -348.46,-4605.33"/>
    </edge>
    <edge id=":49_ME_Z_4" function="internal">
        <lane id=":49_ME_Z_4_0" index="0" speed="33.33" length="8.03" shape="-355.67,-4610.28 -351.16,-4603.62"/>
        <lane id=":49_ME_Z_4_1" index="1" speed="33.33" length="8.03" shape="-358.36,-4608.55 -353.87,-4601.92"/>
    </edge>
    <edge id=":49_SA_Z_0" function="internal">
        <lane id=":49_SA_Z_0_0" index="0" speed="33.33" length="7.99" shape="-654.95,-5051.99 -659.37,-5058.64"/>
        <lane id=":49_SA_Z_0_1" index="1" speed="33.33" length="7.99" shape="-652.29,-5053.76 -656.71,-5060.41"/>
        <lane id=":49_SA_Z_0_2" index="2" speed="33.33" length="7.99" shape="-649.62,-5055.53 -654.05,-5062.19"/>
    </edge>
    <edge id=":49_SA_Z_3" function="internal">
        <lane id=":49_SA_Z_3_0" index="0" speed="33.33" length="8.01" shape="-648.73,-5065.74 -644.29,-5059.07"/>
        <lane id=":49_SA_Z_3_1" index="1" speed="33.33" length="8.01" shape="-651.39,-5063.97 -646.95,-5057.30"/>
    </edge>
    <edge id=":50_EE_B_0" function="internal">
        <lane id=":50_EE_B_0_0" index="0" speed="33.33" length="7.98" shape="5457.38,922.95 5450.53,918.59"/>
        <lane id=":50_EE_B_0_1" index="1" speed="33.33" length="7.98" shape="5458.98,920.18 5452.36,915.96"/>
    </edge>
    <edge id=":50_EE_B_2" function="internal">
        <lane id=":50_EE_B_2_0" index="0" speed="33.33" length="7.32" shape="5457.85,908.09 5463.81,911.88"/>
        <lane id=":50_EE_B_2_1" index="1" speed="33.33" length="7.32" shape="5456.02,910.71 5462.20,914.64"/>
        <lane id=":50_EE_B_2_2" index="2" speed="33.33" length="7.32" shape="5454.19,913.34 5460.59,917.41"/>
    </edge>
    <edge id=":50_EE_Z_0" function="internal">
        <lane id=":50_EE_Z_0_0" index="0" speed="33.33" length="7.80" shape="7003.12,1147.03 6995.42,1147.89"/>
        <lane id=":50_EE_Z_0_1" index="1" speed="33.33" length="7.80" shape="7002.82,1143.84 6995.01,1144.72"/>
    </edge>
    <edge id=":50_EE_Z_2" function="internal">
        <lane id=":50_EE_Z_2_0" index="0" speed="33.33" length="8.02" shape="6994.19,1138.37 7002.21,1137.47"/>
        <lane id=":50_EE_Z_2_1" index="1" speed="33.33" length="8.02" shape="6994.60,1141.54 7002.51,1140.65"/>
    </edge>
    <edge id=":50_MA_Z_0" function="internal">
        <lane id=":50_MA_Z_0_0" index="0" speed="33.33" length="8.21" shape="5641.18,1028.15 5633.88,1024.40"/>
        <lane id=":50_MA_Z_0_1" index="1" speed="33.33" length="8.21" shape="5642.63,1025.30 5635.33,1021.54"/>
        <lane id=":50_MA_Z_0_2" index="2" speed="33.33" length="8.21" shape="5644.09,1022.45 5636.78,1018.69"/>
    </edge>
    <edge id=":50_MA_Z_3" function="internal">
        <lane id=":50_MA_Z_3_0" index="0" speed="30.55" length="8.35" shape="5641.13,1010.13 5643.35,1011.24 5644.90,1011.92 5646.52,1012.43 5648.92,1013.03"/>
    </edge>
    <edge id=":50_MA_Z_4" function="internal">
        <lane id=":50_MA_Z_4_0" index="0" speed="33.33" length="8.22" shape="5639.68,1012.99 5646.99,1016.75"/>
        <lane id=":50_MA_Z_4_1" index="1" speed="33.33" length="8.22" shape="5638.23,1015.84 5645.54,1019.60"/>
    </edge>
    <edge id=":50_ME_B_0" function="internal">
        <lane id=":50_ME_B_0_0" index="0" speed="33.33" length="14.39" shape="5819.73,1109.07 5816.94,1107.23 5814.27,1105.82 5811.11,1104.44 5806.88,1102.69"/>
    </edge>
    <edge id=":50_ME_B_1" function="internal">
        <lane id=":50_ME_B_1_0" index="0" speed="33.33" length="8.36" shape="5816.37,1101.40 5813.95,1100.79 5812.21,1100.66 5810.48,1100.49 5808.12,1099.74"/>
        <lane id=":50_ME_B_1_1" index="1" speed="33.33" length="8.36" shape="5817.41,1098.37 5815.04,1097.78 5813.34,1097.67 5811.66,1097.51 5809.35,1096.78"/>
    </edge>
    <edge id=":50_ME_B_3" function="internal">
        <lane id=":50_ME_B_3_0" index="0" speed="33.33" length="7.95" shape="5811.82,1090.88 5814.02,1091.56 5815.62,1091.69 5817.24,1091.77 5819.49,1092.32"/>
        <lane id=":50_ME_B_3_1" index="1" speed="33.33" length="7.95" shape="5810.58,1093.83 5812.84,1094.54 5814.48,1094.68 5816.14,1094.78 5818.45,1095.35"/>
    </edge>
    <edge id=":50_ME_Z_0" function="internal">
        <lane id=":50_ME_Z_0_0" index="0" speed="33.33" length="10.00" shape="6712.85,1185.45 6702.88,1186.46"/>
        <lane id=":50_ME_Z_0_1" index="1" speed="33.33" length="10.00" shape="6712.42,1182.28 6702.48,1183.29"/>
    </edge>
    <edge id=":50_ME_Z_2" function="internal">
        <lane id=":50_ME_Z_2_0" index="0" speed="33.33" length="9.63" shape="6701.53,1173.04 6704.39,1173.20 6706.35,1173.24 6708.30,1173.12 6711.13,1172.77"/>
    </edge>
    <edge id=":50_ME_Z_3" function="internal">
        <lane id=":50_ME_Z_3_0" index="0" speed="33.33" length="9.95" shape="6701.68,1176.94 6711.56,1175.94"/>
        <lane id=":50_ME_Z_3_1" index="1" speed="33.33" length="9.95" shape="6702.08,1180.11 6711.99,1179.11"/>
    </edge>
    <edge id=":50_SA_B_0" function="internal">
        <lane id=":50_SA_B_0_0" index="0" speed="33.33" length="8.00" shape="7538.19,1163.17 7530.28,1161.95"/>
        <lane id=":50_SA_B_0_1" index="1" speed="33.33" length="8.00" shape="7538.68,1160.01 7530.77,1158.79"/>
    </edge>
    <edge id=":50_SA_B_2" function="internal">
        <lane id=":50_SA_B_2_0" index="0" speed="33.33" length="8.00" shape="7531.75,1152.47 7539.66,1153.69"/>
        <lane id=":50_SA_B_2_1" index="1" speed="33.33" length="8.00" shape="7531.26,1155.63 7539.17,1156.85"/>
    </edge>
    <edge id=":50_SA_Z_0" function="internal">
        <lane id=":50_SA_Z_0_0" index="0" speed="33.33" length="8.05" shape="5218.37,740.70 5212.30,735.38"/>
        <lane id=":50_SA_Z_0_1" index="1" speed="33.33" length="8.05" shape="5220.46,738.28 5214.42,732.99"/>
    </edge>
    <edge id=":50_SA_Z_2" function="internal">
        <lane id=":50_SA_Z_2_0" index="0" speed="33.33" length="7.95" shape="5218.68,728.21 5224.64,733.43"/>
        <lane id=":50_SA_Z_2_1" index="1" speed="33.33" length="7.95" shape="5216.55,730.60 5222.55,735.85"/>
    </edge>
    <edge id=":51_EE_B_0" function="internal">
        <lane id=":51_EE_B_0_0" index="0" speed="33.33" length="7.83" shape="9772.61,1683.91 9764.97,1682.45"/>
        <lane id=":51_EE_B_0_1" index="1" speed="33.33" length="7.83" shape="9773.26,1680.78 9765.53,1679.30"/>
    </edge>
    <edge id=":51_EE_B_2" function="internal">
        <lane id=":51_EE_B_2_0" index="0" speed="33.33" length="8.07" shape="9767.19,1669.84 9775.22,1671.38"/>
        <lane id=":51_EE_B_2_1" index="1" speed="33.33" length="8.07" shape="9766.64,1672.99 9774.57,1674.51"/>
        <lane id=":51_EE_B_2_2" index="2" speed="33.33" length="8.07" shape="9766.08,1676.14 9773.92,1677.65"/>
    </edge>
    <edge id=":51_MEMA_ZB_0" function="internal">
        <lane id=":51_MEMA_ZB_0_0" index="0" speed="33.33" length="8.72" shape="10189.83,1805.31 10187.67,1803.89 10186.12,1803.03 10184.48,1802.35 10182.03,1801.50"/>
    </edge>
    <edge id=":51_MEMA_ZB_1" function="internal">
        <lane id=":51_MEMA_ZB_1_0" index="0" speed="33.33" length="8.76" shape="10191.35,1801.30 10183.06,1798.47"/>
        <lane id=":51_MEMA_ZB_1_1" index="1" speed="33.33" length="8.76" shape="10192.38,1798.27 10184.10,1795.44"/>
    </edge>
    <edge id=":51_MEMA_ZB_3" function="internal">
        <lane id=":51_MEMA_ZB_3_0" index="0" speed="33.33" length="8.40" shape="10187.19,1786.36 10189.55,1787.14 10191.21,1787.57 10192.90,1787.80 10195.39,1787.98"/>
    </edge>
    <edge id=":51_MEMA_ZB_4" function="internal">
        <lane id=":51_MEMA_ZB_4_0" index="0" speed="33.33" length="8.76" shape="10186.16,1789.39 10194.45,1792.21"/>
        <lane id=":51_MEMA_ZB_4_1" index="1" speed="33.33" length="8.76" shape="10185.13,1792.42 10193.42,1795.24"/>
    </edge>
    <edge id=":51_SAEE_BZ_0" function="internal">
        <lane id=":51_SAEE_BZ_0_0" index="0" speed="33.33" length="7.44" shape="11369.49,1996.81 11362.39,1995.06"/>
        <lane id=":51_SAEE_BZ_0_1" index="1" speed="33.33" length="7.44" shape="11370.37,1993.73 11363.03,1991.93"/>
    </edge>
    <edge id=":51_SAEE_BZ_2" function="internal">
        <lane id=":51_SAEE_BZ_2_0" index="0" speed="33.33" length="7.94" shape="11364.31,1985.66 11372.14,1987.58"/>
        <lane id=":51_SAEE_BZ_2_1" index="1" speed="33.33" length="7.94" shape="11363.67,1988.79 11371.26,1990.66"/>
    </edge>
    <edge id=":51_SA_Z_0" function="internal">
        <lane id=":51_SA_Z_0_0" index="0" speed="33.33" length="7.74" shape="9651.42,1665.05 9643.79,1664.25"/>
        <lane id=":51_SA_Z_0_1" index="1" speed="33.33" length="7.74" shape="9651.82,1661.87 9644.06,1661.06"/>
    </edge>
    <edge id=":51_SA_Z_2" function="internal">
        <lane id=":51_SA_Z_2_0" index="0" speed="33.33" length="8.01" shape="9644.59,1654.68 9652.63,1655.52"/>
        <lane id=":51_SA_Z_2_1" index="1" speed="33.33" length="8.01" shape="9644.33,1657.87 9652.22,1658.70"/>
    </edge>
    <edge id=":52_EE_B_0" function="internal">
        <lane id=":52_EE_B_0_0" index="0" speed="33.33" length="7.98" shape="13083.14,3864.62 13079.87,3857.35"/>
        <lane id=":52_EE_B_0_1" index="1" speed="33.33" length="7.98" shape="13086.06,3863.31 13082.79,3856.03"/>
    </edge>
    <edge id=":52_EE_B_2" function="internal">
        <lane id=":52_EE_B_2_0" index="0" speed="33.33" length="8.03" shape="13088.61,3853.38 13091.91,3860.71"/>
        <lane id=":52_EE_B_2_1" index="1" speed="33.33" length="8.03" shape="13085.70,3854.70 13088.99,3862.01"/>
    </edge>
    <edge id=":52_EE_Z_0" function="internal">
        <lane id=":52_EE_Z_0_0" index="0" speed="33.33" length="8.06" shape="13317.73,4323.48 13313.32,4316.62"/>
        <lane id=":52_EE_Z_0_1" index="1" speed="33.33" length="8.06" shape="13320.37,4321.67 13316.06,4314.97"/>
    </edge>
    <edge id=":52_EE_Z_2" function="internal">
        <lane id=":52_EE_Z_2_0" index="0" speed="33.33" length="7.68" shape="13321.55,4311.67 13325.65,4318.05"/>
        <lane id=":52_EE_Z_2_1" index="1" speed="33.33" length="7.68" shape="13318.80,4313.32 13323.01,4319.86"/>
    </edge>
    <edge id=":52_ME_B_0" function="internal">
        <lane id=":52_ME_B_0_0" index="0" speed="33.33" length="8.12" shape="13246.37,4211.17 13245.39,4209.02 13244.32,4207.75 13243.14,4206.52 13241.85,4204.50"/>
    </edge>
    <edge id=":52_ME_B_1" function="internal">
        <lane id=":52_ME_B_1_0" index="0" speed="33.33" length="8.36" shape="13250.00,4209.55 13248.56,4207.52 13247.28,4206.34 13246.04,4205.13 13244.70,4203.05"/>
        <lane id=":52_ME_B_1_1" index="1" speed="33.33" length="8.36" shape="13252.78,4207.96 13251.36,4205.98 13250.10,4204.82 13248.87,4203.64 13247.55,4201.60"/>
    </edge>
    <edge id=":52_ME_B_3" function="internal">
        <lane id=":52_ME_B_3_0" index="0" speed="33.33" length="7.97" shape="13256.11,4197.26 13257.36,4199.18 13258.54,4200.27 13259.76,4201.35 13261.10,4203.21"/>
        <lane id=":52_ME_B_3_1" index="1" speed="33.33" length="7.97" shape="13253.26,4198.71 13254.53,4200.67 13255.73,4201.79 13256.95,4202.89 13258.32,4204.80"/>
        <lane id=":52_ME_B_3_2" index="2" speed="33.33" length="7.97" shape="13250.41,4200.16 13251.70,4202.15 13252.91,4203.31 13254.15,4204.44 13255.54,4206.38"/>
    </edge>
    <edge id=":52_ME_Z_0" function="internal">
        <lane id=":52_ME_Z_0_0" index="0" speed="33.33" length="7.98" shape="13140.63,3997.92 13137.08,3990.79"/>
        <lane id=":52_ME_Z_0_1" index="1" speed="33.33" length="7.98" shape="13143.53,3996.56 13139.97,3989.42"/>
        <lane id=":52_ME_Z_0_2" index="2" speed="33.33" length="7.98" shape="13146.43,3995.21 13142.87,3988.05"/>
    </edge>
    <edge id=":52_ME_Z_3" function="internal">
        <lane id=":52_ME_Z_3_0" index="0" speed="33.33" length="8.95" shape="13152.08,3982.77 13152.75,3985.33 13153.31,3987.07 13154.01,3988.74 13155.13,3991.15"/>
    </edge>
    <edge id=":52_ME_Z_4" function="internal">
        <lane id=":52_ME_Z_4_0" index="0" speed="33.33" length="8.02" shape="13148.66,3985.31 13152.23,3992.50"/>
        <lane id=":52_ME_Z_4_1" index="1" speed="33.33" length="8.02" shape="13145.76,3986.68 13149.33,3993.86"/>
    </edge>
    <edge id=":52_SA_B_0" function="internal">
        <lane id=":52_SA_B_0_0" index="0" speed="33.33" length="7.93" shape="13869.48,4926.46 13863.85,4920.91"/>
        <lane id=":52_SA_B_0_1" index="1" speed="33.33" length="7.93" shape="13871.75,4924.20 13866.07,4918.61"/>
    </edge>
    <edge id=":52_SA_B_2" function="internal">
        <lane id=":52_SA_B_2_0" index="0" speed="33.33" length="8.06" shape="13870.51,4914.00 13876.28,4919.68"/>
        <lane id=":52_SA_B_2_1" index="1" speed="33.33" length="8.06" shape="13868.29,4916.31 13874.01,4921.94"/>
    </edge>
    <edge id=":52_SA_Z_0" function="internal">
        <lane id=":52_SA_Z_0_0" index="0" speed="33.33" length="7.84" shape="12456.09,3005.51 12450.28,3000.32"/>
        <lane id=":52_SA_Z_0_1" index="1" speed="33.33" length="7.84" shape="12458.25,3003.15 12452.37,2997.90"/>
    </edge>
    <edge id=":52_SA_Z_2" function="internal">
        <lane id=":52_SA_Z_2_0" index="0" speed="33.33" length="8.03" shape="12456.56,2993.06 12462.59,2998.44"/>
        <lane id=":52_SA_Z_2_1" index="1" speed="33.33" length="8.03" shape="12454.47,2995.48 12460.42,3000.80"/>
    </edge>
    <edge id=":J0_0" function="internal">
        <lane id=":J0_0_0" index="0" speed="22.22" length="0.24" shape="13398.70,4455.71 13398.66,4455.65 13398.64,4455.61 13398.61,4455.57 13398.57,4455.52"/>
    </edge>
    <edge id=":J1_0" function="internal">
        <lane id=":J1_0_0" index="0" speed="33.33" length="6.74" shape="-9033.37,-8414.61 -9034.83,-8415.97 -9035.88,-8416.86 -9036.98,-8417.67 -9038.64,-8418.78"/>
    </edge>
    <edge id=":J10_0" function="internal">
        <lane id=":J10_0_0" index="0" speed="33.33" length="0.12" shape="12906.73,3520.98 12906.71,3520.95"/>
        <lane id=":J10_0_1" index="1" speed="33.33" length="0.12" shape="12909.51,3519.41 12909.42,3519.24"/>
    </edge>
    <edge id=":J10_2" function="internal">
        <lane id=":J10_2_0" index="0" speed="33.33" length="0.43" shape="12914.82,3515.82 12915.08,3516.25"/>
        <lane id=":J10_2_1" index="1" speed="33.33" length="0.43" shape="12912.12,3517.53 12912.30,3517.83"/>
    </edge>
    <edge id=":J11_0" function="internal">
        <lane id=":J11_0_0" index="0" speed="33.33" length="0.54" shape="12267.55,2827.09 12267.12,2826.63"/>
        <lane id=":J11_0_1" index="1" speed="33.33" length="0.54" shape="12269.81,2824.83 12269.51,2824.50"/>
    </edge>
    <edge id=":J11_2" function="internal">
        <lane id=":J11_2_0" index="0" speed="33.33" length="0.18" shape="12274.28,2820.24 12274.34,2820.31"/>
        <lane id=":J11_2_1" index="1" speed="33.33" length="0.18" shape="12271.89,2822.37 12272.08,2822.57"/>
    </edge>
    <edge id=":J12_0" function="internal">
        <lane id=":J12_0_0" index="0" speed="33.33" length="0.32" shape="11808.96,2230.61 11808.93,2230.58 11808.90,2230.56 11808.88,2230.54 11808.84,2230.51"/>
        <lane id=":J12_0_1" index="1" speed="33.33" length="0.32" shape="11811.25,2228.38 11811.15,2228.28 11811.08,2228.21 11811.01,2228.14 11810.90,2228.05"/>
    </edge>
    <edge id=":J12_2" function="internal">
        <lane id=":J12_2_0" index="0" speed="33.33" length="0.95" shape="11815.01,2223.15 11815.26,2223.36 11815.43,2223.51 11815.59,2223.67 11815.82,2223.90"/>
        <lane id=":J12_2_1" index="1" speed="33.33" length="0.95" shape="11812.95,2225.60 11813.13,2225.75 11813.25,2225.86 11813.37,2225.97 11813.54,2226.14"/>
    </edge>
    <edge id=":J13_0" function="internal">
        <lane id=":J13_0_0" index="0" speed="33.33" length="11.62" shape="11122.05,1961.88 11118.53,1961.55 11115.99,1961.62 11113.60,1961.97 11110.52,1962.50"/>
    </edge>
    <edge id=":J13_1" function="internal">
        <lane id=":J13_1_0" index="0" speed="33.33" length="12.17" shape="11122.46,1958.71 11118.89,1958.40 11116.43,1958.44 11113.96,1958.52 11110.37,1958.35"/>
        <lane id=":J13_1_1" index="1" speed="33.33" length="12.17" shape="11122.87,1955.53 11119.26,1955.22 11116.77,1955.26 11114.28,1955.34 11110.65,1955.16"/>
    </edge>
    <edge id=":J13_3" function="internal">
        <lane id=":J13_3_0" index="0" speed="27.77" length="17.06" shape="11107.35,1942.98 11110.77,1943.99 11114.33,1944.70 11118.59,1945.31 11124.11,1946.01"/>
    </edge>
    <edge id=":J13_4" function="internal">
        <lane id=":J13_4_0" index="0" speed="33.33" length="12.42" shape="11111.22,1948.79 11123.69,1949.19"/>
        <lane id=":J13_4_1" index="1" speed="33.33" length="12.42" shape="11110.94,1951.97 11123.28,1952.36"/>
    </edge>
    <edge id=":J14_0" function="internal">
        <lane id=":J14_0_0" index="0" speed="33.33" length="0.38" shape="10735.19,1924.06 10734.75,1924.02"/>
        <lane id=":J14_0_1" index="1" speed="33.33" length="0.38" shape="10735.45,1920.87 10735.14,1920.84"/>
    </edge>
    <edge id=":J14_2" function="internal">
        <lane id=":J14_2_0" index="0" speed="33.33" length="0.11" shape="10735.93,1914.49 10735.98,1914.50"/>
        <lane id=":J14_2_1" index="1" speed="33.33" length="0.11" shape="10735.54,1917.67 10735.71,1917.69"/>
    </edge>
    <edge id=":J15_0" function="internal">
        <lane id=":J15_0_0" index="0" speed="33.33" length="0.32" shape="9449.03,1652.59 9448.71,1652.57"/>
        <lane id=":J15_0_1" index="1" speed="33.33" length="0.32" shape="9449.20,1649.40 9448.89,1649.38"/>
    </edge>
    <edge id=":J15_2" function="internal">
        <lane id=":J15_2_0" index="0" speed="33.33" length="0.28" shape="9449.26,1642.99 9449.53,1643.00"/>
        <lane id=":J15_2_1" index="1" speed="33.33" length="0.28" shape="9449.07,1646.18 9449.36,1646.20"/>
    </edge>
    <edge id=":J16_0" function="internal">
        <lane id=":J16_0_0" index="0" speed="33.33" length="0.29" shape="8727.65,1486.56 8727.38,1486.45"/>
        <lane id=":J16_0_1" index="1" speed="33.33" length="0.29" shape="8728.86,1483.60 8728.59,1483.48"/>
    </edge>
    <edge id=":J16_2" function="internal">
        <lane id=":J16_2_0" index="0" speed="33.33" length="0.31" shape="8731.00,1477.56 8731.29,1477.68"/>
        <lane id=":J16_2_1" index="1" speed="33.33" length="0.31" shape="8729.80,1480.52 8730.08,1480.64"/>
    </edge>
    <edge id=":J17_0" function="internal">
        <lane id=":J17_0_0" index="0" speed="33.33" length="0.28" shape="7872.76,1222.91 7872.49,1222.86"/>
        <lane id=":J17_0_1" index="1" speed="33.33" length="0.28" shape="7873.34,1219.76 7873.06,1219.71"/>
    </edge>
    <edge id=":J17_2" function="internal">
        <lane id=":J17_2_0" index="0" speed="33.33" length="0.32" shape="7874.20,1213.41 7874.52,1213.47"/>
        <lane id=":J17_2_1" index="1" speed="33.33" length="0.32" shape="7873.63,1216.56 7873.93,1216.61"/>
    </edge>
    <edge id=":J18_0" function="internal">
        <lane id=":J18_0_0" index="0" speed="33.33" length="0.36" shape="-588.43,-4941.80 -588.48,-4941.89 -588.52,-4941.96 -588.54,-4942.03 -588.57,-4942.13"/>
    </edge>
    <edge id=":J19_0" function="internal">
        <lane id=":J19_0_0" index="0" speed="33.33" length="0.70" shape="6358.68,1205.41 6357.86,1205.38"/>
        <lane id=":J19_0_1" index="1" speed="33.33" length="0.70" shape="6358.65,1202.21 6358.07,1202.19"/>
    </edge>
    <edge id=":J19_2" function="internal">
        <lane id=":J19_2_0" index="0" speed="33.33" length="0.23" shape="6358.49,1195.81 6358.61,1195.81"/>
        <lane id=":J19_2_1" index="1" speed="33.33" length="0.23" shape="6358.28,1199.00 6358.63,1199.01"/>
    </edge>
    <edge id=":J2_0" function="internal">
        <lane id=":J2_0_0" index="0" speed="30.55" length="7.91" shape="-8762.48,-8227.66 -8764.58,-8228.64 -8766.35,-8228.56 -8768.15,-8228.41 -8770.38,-8229.20"/>
        <lane id=":J2_0_1" index="1" speed="30.55" length="7.91" shape="-8762.48,-8227.66 -8764.27,-8229.02 -8765.52,-8229.91 -8766.80,-8230.75 -8768.72,-8231.93"/>
    </edge>