<?xml version="1.0" encoding="UTF-8"?>

<!-- generated on 2026-04-20T13:37:51.658061+01:00 by Eclipse SUMO netedit v1_25_0+0086-b1f02afa5bd
-->

<routes xmlns:xsi="http://www.w3.org/2001/XMLSchema-instance" xsi:noNamespaceSchemaLocation="http://sumo.dlr.de/xsd/routes_file.xsd">
    <!-- VTypes -->
    <vType id="01_bus_aggr1" length="12.30" maxSpeed="27.77" desiredMaxSpeed="27.77" speedFactor="normc(0.90,0.09,0.85,0.95)" vClass="coach" emissionClass="HBEFA3/Coach" guiShape="bus" accel="1.5" decel="3" emergencyDecel="7" laneChangeModel="SL2015" lcStrategic="1.25" lcSpeedGain="0.8" lcKeepRight="0.5" lcCooperative="0.4" lcAssertive="1.2" lcOvertakeRight="0.05" lcImpatience="0" lcTimeToImpatience="15" lcSublane="1" tau="1.6"/>
    <vType id="01_bus_aggr2" length="12.30" maxSpeed="27.77" desiredMaxSpeed="27.77" speedFactor="normc(0.925,0.09,0.875,0.975)" vClass="coach" emissionClass="HBEFA3/Coach" guiShape="bus" accel="1.75" decel="3.5" emergencyDecel="7" laneChangeModel="SL2015" lcStrategic="1.25" lcSpeedGain="0.8" lcKeepRight="0.5" lcCooperative="0.4" lcAssertive="1.3" lcOvertakeRight="0.05" lcImpatience="0.1" lcTimeToImpatience="12" lcSublane="1" tau="1.6"/>
    <vType id="01_bus_aggr3" length="12.30" maxSpeed="27.77" desiredMaxSpeed="27.77" speedFactor="normc(0.95,0.09,0.9,1)" vClass="coach" emissionClass="HBEFA3/Coach" guiShape="bus" accel="2" decel="4" emergencyDecel="7" laneChangeModel="SL2015" lcStrategic="1.25" lcSpeedGain="0.8" lcKeepRight="0.5" lcCooperative="0.4" lcAssertive="1.4" lcOvertakeRight="0.05" lcImpatience="0.2" lcTimeToImpatience="9" lcSublane="1" tau="1.6"/>
    <vType id="01_bus_aggr4" length="12.30" maxSpeed="27.77" desiredMaxSpeed="27.77" speedFactor="normc(0.975,0.09,0.925,1.025)" vClass="coach" emissionClass="HBEFA3/Coach" guiShape="bus" accel="2.25" decel="4.5" emergencyDecel="7" laneChangeModel="SL2015" lcStrategic="1.25" lcSpeedGain="0.8" lcKeepRight="0.5" lcCooperative="0.4" lcAssertive="1.5" lcOvertakeRight="0.05" lcImpatience="0.3" lcTimeToImpatience="6" lcSublane="1" tau="1.6"/>
    <vType id="01_bus_aggr5" length="12.30" maxSpeed="27.77" desiredMaxSpeed="27.77" speedFactor="normc(1.00,0.09,0.95,1.05)" vClass="coach" emissionClass="HBEFA3/Coach" guiShape="bus" accel="2.5" decel="5" emergencyDecel="7" laneChangeModel="SL2015" lcStrategic="1.25" lcSpeedGain="0.8" lcKeepRight="0.5" lcCooperative="0.4" lcAssertive="1.6" lcOvertakeRight="0.05" lcImpatience="0.4" lcTimeToImpatience="3" lcSublane="1" tau="1.6"/>
    <vType id="02_motc_aggr1" length="1.70" maxSpeed="46.00" speedFactor="normc(0.95,0.08,0.9,1)" vClass="motorcycle" emissionClass="HBEFA3/PC" guiShape="motorcycle" accel="3" decel="6" emergencyDecel="10" laneChangeModel="SL2015" lcStrategic="1.25" lcSpeedGain="1" lcKeepRight="0.1" lcCooperative="0.4" lcAssertive="1.2" lcOvertakeRight="0.05" lcImpatience="0" lcTimeToImpatience="15" lcSublane="1" tau="1.01"/>
    <vType id="02_motc_aggr2" length="1.70" maxSpeed="47.00" speedFactor="normc(0.975,0.09,0.925,1.025)" vClass="motorcycle" emissionClass="HBEFA3/PC" guiShape="motorcycle" accel="4" decel="7" emergencyDecel="10" laneChangeModel="SL2015" lcStrategic="1.25" lcSpeedGain="1" lcKeepRight="0.1" lcCooperative="0.4" lcAssertive="1.3" lcOvertakeRight="0.05" lcImpatience="0.1" lcTimeToImpatience="12" lcSublane="1" tau="1.01"/>
    <vType id="02_motc_aggr3" length="1.70" maxSpeed="48.00" speedFactor="normc(1.0,0.10,0.95,1.05)" vClass="motorcycle" emissionClass="HBEFA3/PC" guiShape="motorcycle" accel="5" decel="8" emergencyDecel="10" laneChangeModel="SL2015" lcStrategic="1.25" lcSpeedGain="1" lcKeepRight="0.1" lcCooperative="0.4" lcAssertive="1.4" lcOvertakeRight="0.05" lcImpatience="0.2" lcTimeToImpatience="9" lcSublane="1" tau="1.01"/>
    <vType id="02_motc_aggr4" length="1.70" maxSpeed="49.00" speedFactor="normc(1.05,0.12,1,1.1)" vClass="motorcycle" emissionClass="HBEFA3/PC" guiShape="motorcycle" accel="6" decel="9" emergencyDecel="10" laneChangeModel="SL2015" lcStrategic="1.25" lcSpeedGain="1" lcKeepRight="0.1" lcCooperative="0.4" lcAssertive="1.5" lcOvertakeRight="0.05" lcImpatience="0.3" lcTimeToImpatience="6" lcSublane="1" tau="1.01"/>
    <vType id="02_motc_aggr5" length="1.70" maxSpeed="50.00" speedFactor="normc(1.10,0.15,1.05,1.15)" vClass="motorcycle" emissionClass="HBEFA3/PC" guiShape="motorcycle" accel="7" decel="10" emergencyDecel="10" laneChangeModel="SL2015" lcStrategic="1.25" lcSpeedGain="1" lcKeepRight="0.1" lcCooperative="0.4" lcAssertive="1.6" lcOvertakeRight="0.05" lcImpatience="0.4" lcTimeToImpatience="3" lcSublane="1" tau="1.01"/>
    <vType id="03_car_aggr1" length="4.30" maxSpeed="46.00" speedFactor="normc(0.95,0.08,0.9,1)" vClass="passenger" emissionClass="HBEFA3/PC" guiShape="passenger/van" accel="2" decel="3" emergencyDecel="9" laneChangeModel="SL2015" lcStrategic="1.25" lcSpeedGain="1" lcKeepRight="0.1" lcCooperative="0.4" lcAssertive="1.2" lcOvertakeRight="0.05" lcImpatience="0" lcTimeToImpatience="15" lcSublane="1" tau="1"/>
    <vType id="03_car_aggr2" length="4.30" maxSpeed="47.00" speedFactor="normc(0.975,0.09,0.925,1.025)" vClass="passenger" emissionClass="HBEFA3/PC" guiShape="passenger/wagon" accel="2.5" decel="4" emergencyDecel="9" laneChangeModel="SL2015" lcStrategic="1.25" lcSpeedGain="1" lcKeepRight="0.1" lcCooperative="0.4" lcAssertive="1.3" lcOvertakeRight="0.05" lcImpatience="0.1" lcTimeToImpatience="12" lcSublane="1" tau="1"/>
    <vType id="03_car_aggr3" length="4.30" maxSpeed="48.00" speedFactor="normc(1.0,0.10,0.95,1.05)" vClass="passenger" emissionClass="HBEFA3/PC" guiShape="passenger/hatchback" accel="3" decel="5" emergencyDecel="9" laneChangeModel="SL2015" lcStrategic="1.25" lcSpeedGain="1" lcKeepRight="0.1" lcCooperative="0.4" lcAssertive="1.4" lcOvertakeRight="0.05" lcImpatience="0.2" lcTimeToImpatience="9" lcSublane="1" tau="1"/>
    <vType id="03_car_aggr4" length="4.30" maxSpeed="49.00" speedFactor="normc(1.05,0.12,1,1.1)" vClass="passenger" emissionClass="HBEFA3/PC" guiShape="passenger/sedan" accel="3.5" decel="6" emergencyDecel="9" laneChangeModel="SL2015" lcStrategic="1.25" lcSpeedGain="1" lcKeepRight="0.1" lcCooperative="0.4" lcAssertive="1.5" lcOvertakeRight="0.05" lcImpatience="0.3" lcTimeToImpatience="6" lcSublane="1" tau="1"/>
    <vType id="03_car_aggr5" length="4.30" maxSpeed="50.00" speedFactor="normc(1.10,0.15,1.05,1.15)" vClass="passenger" emissionClass="HBEFA3/PC" guiShape="passenger/sedan" accel="4" decel="7" emergencyDecel="9" laneChangeModel="SL2015" lcStrategic="1.25" lcSpeedGain="1" lcKeepRight="0.1" lcCooperative="0.4" lcAssertive="1.6" lcOvertakeRight="0.05" lcImpatience="0.4" lcTimeToImpatience="3" lcSublane="1" tau="1"/>
    <vType id="05_deliv_aggr1" length="5.30" maxSpeed="46.00" speedFactor="normc(0.95,0.08,0.9,1)" vClass="delivery" emissionClass="HBEFA3/LDV" guiShape="delivery" accel="2" decel="3" emergencyDecel="9" laneChangeModel="SL2015" lcStrategic="1.25" lcSpeedGain="1" lcKeepRight="0.1" lcCooperative="0.4" lcAssertive="1.2" lcOvertakeRight="0.05" lcImpatience="0" lcTimeToImpatience="15" lcSublane="1" tau="1.01"/>
    <vType id="05_deliv_aggr2" length="5.30" maxSpeed="47.00" speedFactor="normc(0.975,0.09,0.925,1.025)" vClass="delivery" emissionClass="HBEFA3/LDV" guiShape="delivery" accel="2.5" decel="4" emergencyDecel="9" laneChangeModel="SL2015" lcStrategic="1.25" lcSpeedGain="1" lcKeepRight="0.1" lcCooperative="0.4" lcAssertive="1.3" lcOvertakeRight="0.05" lcImpatience="0.1" lcTimeToImpatience="12" lcSublane="1" tau="1.01"/>
    <vType id="05_deliv_aggr3" length="5.30" maxSpeed="48.00" speedFactor="normc(1.0,0.10,0.95,1.05)" vClass="delivery" emissionClass="HBEFA3/LDV" guiShape="delivery" accel="3" decel="5" emergencyDecel="9" laneChangeModel="SL2015" lcStrategic="1.25" lcSpeedGain="1" lcKeepRight="0.1" lcCooperative="0.4" lcAssertive="1.4" lcOvertakeRight="0.05" lcImpatience="0.2" lcTimeToImpatience="9" lcSublane="1" tau="1.01"/>
    <vType id="05_deliv_aggr4" length="5.30" maxSpeed="49.00" speedFactor="normc(1.05,0.12,1,1.1)" vClass="delivery" emissionClass="HBEFA3/LDV" guiShape="delivery" accel="3.5" decel="6" emergencyDecel="9" laneChangeModel="SL2015" lcStrategic="1.25" lcSpeedGain="1" lcKeepRight="0.1" lcCooperative="0.4" lcAssertive="1.5" lcOvertakeRight="0.05" lcImpatience="0.3" lcTimeToImpatience="6" lcSublane="1" tau="1.01"/>
    <vType id="05_deliv_aggr5" length="5.30" maxSpeed="50.00" speedFactor="normc(1.10,0.15,1.05,1.15)" vClass="delivery" emissionClass="HBEFA3/LDV" guiShape="delivery" accel="4" decel="7" emergencyDecel="9" laneChangeModel="SL2015" lcStrategic="1.25" lcSpeedGain="1" lcKeepRight="0.1" lcCooperative="0.4" lcAssertive="1.6" lcOvertakeRight="0.05" lcImpatience="0.4" lcTimeToImpatience="3" lcSublane="1" tau="1.01"/>
    <vType id="08_truck_aggr1" length="13.56" maxSpeed="25.00" desiredMaxSpeed="22.22" speedFactor="normc(0.95,0.07,0.9,1)" vClass="trailer" emissionClass="HBEFA3/HDV" guiShape="truck/semitrailer" accel="1" decel="3" emergencyDecel="7" laneChangeModel="SL2015" lcStrategic="1.5" lcSpeedGain="0" lcKeepRight="1" lcCooperative="0.5" lcAssertive="1.2"  lcOvertakeRight="0.05" lcImpatience="0" lcTimeToImpatience="15" lcSublane="1" tau="1.6"/>
    <vType id="08_truck_aggr2" length="13.56" maxSpeed="25.00" desiredMaxSpeed="22.22" speedFactor="normc(0.975,0.07,0.925,1.025)" vClass="trailer" emissionClass="HBEFA3/HDV" guiShape="truck/semitrailer" accel="1.25" decel="3.5" emergencyDecel="7" laneChangeModel="SL2015" lcStrategic="1.5" lcSpeedGain="0" lcKeepRight="1" lcCooperative="0.5" lcAssertive="1.3" lcOvertakeRight="0.05" lcImpatience="0.1" lcTimeToImpatience="12" lcSublane="1" tau="1.6"/>
    <vType id="08_truck_aggr3" length="13.56" maxSpeed="25.00" desiredMaxSpeed="22.22" speedFactor="normc(1.0,0.07,0.95,1.05)" vClass="trailer" emissionClass="HBEFA3/HDV" guiShape="truck/semitrailer" accel="1.5" decel="4" emergencyDecel="7" laneChangeModel="SL2015" lcStrategic="1.5" lcSpeedGain="0" lcKeepRight="1" lcCooperative="0.5" lcAssertive="1.4" lcOvertakeRight="0.05" lcImpatience="0.2" lcTimeToImpatience="9" lcSublane="1" tau="1.6"/>
    <vType id="08_truck_aggr4" length="13.56" maxSpeed="25.00" desiredMaxSpeed="22.22" speedFactor="normc(1.05,0.07,1,1.1)" vClass="trailer" emissionClass="HBEFA3/HDV" guiShape="truck/semitrailer" accel="1.75" decel="4.5" emergencyDecel="7" laneChangeModel="SL2015" lcStrategic="1.5" lcSpeedGain="0.01" lcKeepRight="1" lcCooperative="0.5" lcAssertive="1.5" lcOvertakeRight="0.05" lcImpatience="0.3" lcTimeToImpatience="6" lcSublane="1" tau="1.6"/>
    <vType id="08_truck_aggr5" length="13.56" maxSpeed="25.00" desiredMaxSpeed="22.22" speedFactor="normc(1.10,0.07,1.05,1.15)" vClass="trailer" emissionClass="HBEFA3/HDV" guiShape="truck/semitrailer" accel="2" decel="5" emergencyDecel="7" laneChangeModel="SL2015" lcStrategic="1.5" lcSpeedGain="0.1" lcKeepRight="1" lcCooperative="0.5" lcAssertive="1.6" lcOvertakeRight="0.05" lcImpatience="0.4" lcTimeToImpatience="3" lcSublane="1" tau="1.6"/>
    <vTypeDistribution id="bus" vTypes="01_bus_aggr1 01_bus_aggr2 01_bus_aggr3 01_bus_aggr4 01_bus_aggr5" probabilities="0.2 0.2 0.2 0.2 0.2"/>
    <vTypeDistribution id="motc" vTypes="02_motc_aggr1 02_motc_aggr2 02_motc_aggr3 02_motc_aggr4 02_motc_aggr5" probabilities="0.2 0.2 0.2 0.2 0.2"/>
    <vTypeDistribution id="car" vTypes="03_car_aggr1 03_car_aggr2 03_car_aggr3 03_car_aggr4 03_car_aggr5" probabilities="0.2 0.2 0.2 0.2 0.2"/>
    <vTypeDistribution id="deliv" vTypes="05_deliv_aggr1 05_deliv_aggr2 05_deliv_aggr3 05_deliv_aggr4 05_deliv_aggr5" probabilities="0.2 0.2 0.2 0.2 0.2"/>
    <vTypeDistribution id="truck" vTypes="08_truck_aggr1 08_truck_aggr2 08_truck_aggr3 08_truck_aggr4 08_truck_aggr5" probabilities="0.2 0.2 0.2 0.2 0.2"/>
    <!-- Vehicles, persons and containers (sorted by depart) -->
</routes>
